bCD
                    3D

147154  0  0  1  0            999 V2000
   28.1938  114.2474   48.4645  C    0  0  2  0  0  0
   26.8216  113.5424   48.4497  C    0  0  1  0  0  0
   26.1518  113.4750   47.0472  C    0  0  2  0  0  0
   26.2064  114.9371   46.4537  C    0  0  1  0  0  0
   27.7408  115.3886   46.3283  C    0  0  1  0  0  0
   27.9249  116.8470   45.7216  C    0  0  0  0  0  0
   32.6460  111.2386   48.1284  C    0  0  2  0  0  0
   31.6336  111.0384   49.2668  C    0  0  1  0  0  0
   30.2589  111.6754   48.9546  C    0  0  2  0  0  0
   30.3661  113.1209   48.3974  C    0  0  1  0  0  0
   31.5321  113.2658   47.3562  C    0  0  1  0  0  0
   31.7987  114.7397   46.9052  C    0  0  0  0  0  0
   33.8878  109.4160   43.3458  C    0  0  2  0  0  0
   33.3586  108.2039   44.1376  C    0  0  1  0  0  0
   32.4578  108.7279   45.2827  C    0  0  2  0  0  0
   33.2149  109.7727   46.1893  C    0  0  1  0  0  0
   34.0616  110.8083   45.3548  C    0  0  1  0  0  0
   35.2554  111.4784   46.1473  C    0  0  0  0  0  0
   31.9164  111.3129   38.6450  C    0  0  2  0  0  0
   31.5933  109.8145   38.9659  C    0  0  1  0  0  0
   31.8254  109.5898   40.5201  C    0  0  2  0  0  0
   33.0854  110.3597   41.1973  C    0  0  1  0  0  0
   33.0622  111.8702   40.8136  C    0  0  1  0  0  0
   34.3241  112.6473   41.3696  C    0  0  0  0  0  0
   28.6107  115.2807   36.9163  C    0  0  2  0  0  0
   28.6699  113.9013   36.1250  C    0  0  1  0  0  0
   29.1600  112.7499   37.1437  C    0  0  2  0  0  0
   30.4360  113.1602   37.8610  C    0  0  1  0  0  0
   30.1957  114.5437   38.5263  C    0  0  1  0  0  0
   31.4747  115.1048   39.2781  C    0  0  0  0  0  0
   24.2815  116.5515   39.7911  C    0  0  2  0  0  0
   24.0853  115.4935   38.6342  C    0  0  1  0  0  0
   25.5100  114.8305   38.2495  C    0  0  2  0  0  0
   26.5659  115.9059   37.9355  C    0  0  1  0  0  0
   26.6566  117.0365   39.0156  C    0  0  1  0  0  0
   27.4959  118.2898   38.5979  C    0  0  0  0  0  0
   24.2668  115.3655   45.1183  C    0  0  1  0  0  0
   23.4636  114.4267   44.2026  C    0  0  1  0  0  0
   23.8856  114.5065   42.6802  C    0  0  2  0  0  0
   24.0917  115.9753   42.2172  C    0  0  1  0  0  0
   24.9055  116.8226   43.1758  C    0  0  1  0  0  0
   24.8406  118.3176   42.7409  C    0  0  0  0  0  0
   26.8736  112.2790   49.1387  O    0  0  0  0  0  0
   24.7463  113.0078   47.2272  O    0  0  0  0  0  0
   25.5937  114.8707   45.1372  O    0  0  0  0  0  0
   28.1696  115.4985   47.7306  O    0  0  0  0  0  0
   29.3164  117.2015   45.8400  O    0  0  0  0  0  0
   31.3911  109.6558   49.6897  O    0  0  0  0  0  0
   29.2922  111.6070   50.0155  O    0  0  0  0  0  0
   29.1106  113.3989   47.7759  O    0  0  0  0  0  0
   32.7627  112.6576   47.8061  O    0  0  0  0  0  0
   32.3724  115.4915   47.9711  O    0  0  0  0  0  0
   32.7387  107.1799   43.2748  O    0  0  0  0  0  0
   32.0580  107.5314   46.1319  O    0  0  0  0  0  0
   32.2268  110.4853   47.0367  O    0  0  0  0  0  0
   34.6393  110.1816   44.2226  O    0  0  0  0  0  0
   36.2557  110.3894   46.4111  O    0  0  0  0  0  0
   30.3117  109.3457   38.5539  O    0  0  0  0  0  0
   31.8989  108.1261   40.8491  O    0  0  0  0  0  0
   32.9110  110.1847   42.6343  O    0  0  0  0  0  0
   33.1154  111.8507   39.3834  O    0  0  0  0  0  0
   34.3693  113.9889   40.7883  O    0  0  0  0  0  0
   27.4355  113.5469   35.5439  O    0  0  0  0  0  0
   29.3957  111.5207   36.4249  O    0  0  0  0  0  0
   30.7902  112.1670   38.9172  O    0  0  0  0  0  0
   29.8761  115.4929   37.5445  O    0  0  0  0  0  0
   32.5555  115.4573   38.3225  O    0  0  0  0  0  0
   23.0711  114.5115   39.0457  O    0  0  0  0  0  0
   25.3933  113.9193   37.1480  O    0  0  0  0  0  0
   27.7345  115.0802   37.9568  O    0  0  0  0  0  0
   25.2811  117.5407   39.3500  O    0  0  0  0  0  0
   27.4172  119.4091   39.5259  O    0  0  0  0  0  0
   23.6023  113.0584   44.6712  O    0  0  0  0  0  0
   23.1715  113.6678   41.6649  O    0  0  0  0  0  0
   24.7896  115.8030   40.9307  O    0  0  0  0  0  0
   24.3284  116.6918   44.4988  O    0  0  0  0  0  0
   25.4680  119.0669   43.7383  O    0  0  0  0  0  0
   30.8358  115.1683   46.5688  H    0  0  0  0  0  0
   32.4222  114.5934   46.0028  H    0  0  0  0  0  0
   27.8213  112.0926   49.3581  H    0  0  0  0  0  0
   24.8823  112.0774   47.6312  H    0  0  0  0  0  0
   29.5383  116.6540   46.6336  H    0  0  0  0  0  0
   32.3149  109.3088   50.0188  H    0  0  0  0  0  0
   29.7364  111.9444   50.8136  H    0  0  0  0  0  0
   33.0657  114.9615   48.4788  H    0  0  0  0  0  0
   33.1693  106.3085   43.5852  H    0  0  0  0  0  0
   31.5938  107.0347   45.4973  H    0  0  0  0  0  0
   36.1298  109.7811   45.6371  H    0  0  0  0  0  0
   30.3978  109.3590   37.5522  H    0  0  0  0  0  0
   32.5419  108.0270   41.5941  H    0  0  0  0  0  0
   35.1334  114.4021   41.2697  H    0  0  0  0  0  0
   26.7715  113.6950   36.2531  H    0  0  0  0  0  0
   28.5176  111.3255   36.0517  H    0  0  0  0  0  0
   32.0928  116.0650   37.6817  H    0  0  0  0  0  0
   23.0968  114.5373   40.0151  H    0  0  0  0  0  0
   24.7892  113.1896   37.4430  H    0  0  0  0  0  0
   26.4705  119.4148   39.8256  H    0  0  0  0  0  0
   24.2449  113.1160   45.4621  H    0  0  0  0  0  0
   22.2808  113.4824   42.1114  H    0  0  0  0  0  0
   25.0088  118.8244   44.5813  H    0  0  0  0  0  0
   28.5633  114.3885   49.4530  H    0  0  0  0  0  0
   26.0753  114.2445   48.9687  H    0  0  0  0  0  0
   26.6939  112.7841   46.4582  H    0  0  0  0  0  0
   25.6909  115.6722   47.0978  H    0  0  0  0  0  0
   28.3937  114.5998   45.7983  H    0  0  0  0  0  0
   27.6378  116.8022   44.6523  H    0  0  0  0  0  0
   27.2540  117.5726   46.1571  H    0  0  0  0  0  0
   33.6308  110.8905   48.4232  H    0  0  0  0  0  0
   32.0223  111.6112   50.1324  H    0  0  0  0  0  0
   29.9141  111.0655   48.1495  H    0  0  0  0  0  0
   30.6514  113.7308   49.2075  H    0  0  0  0  0  0
   31.2316  112.7142   46.4407  H    0  0  0  0  0  0
   34.6607  109.1120   42.6491  H    0  0  0  0  0  0
   34.1951  107.8032   44.7363  H    0  0  0  0  0  0
   31.5330  109.1728   44.8176  H    0  0  0  0  0  0
   33.9077  109.2167   46.8662  H    0  0  0  0  0  0
   33.4347  111.6605   45.0464  H    0  0  0  0  0  0
   34.9301  112.1420   46.9466  H    0  0  0  0  0  0
   35.6369  112.1032   45.3763  H    0  0  0  0  0  0
   32.1118  111.3306   37.5212  H    0  0  0  0  0  0
   32.4123  109.3420   38.4379  H    0  0  0  0  0  0
   30.9392  110.0673   40.9857  H    0  0  0  0  0  0
   34.1021  109.9226   40.8684  H    0  0  0  0  0  0
   32.2177  112.3693   41.3201  H    0  0  0  0  0  0
   34.2481  112.6304   42.4713  H    0  0  0  0  0  0
   35.2002  112.0699   41.0447  H    0  0  0  0  0  0
   28.3022  116.0538   36.2467  H    0  0  0  0  0  0
   29.4157  114.0108   35.3307  H    0  0  0  0  0  0
   28.3589  112.7229   37.9124  H    0  0  0  0  0  0
   31.2376  113.0828   37.1256  H    0  0  0  0  0  0
   29.4590  114.4498   39.3086  H    0  0  0  0  0  0
   31.1940  115.9608   39.8913  H    0  0  0  0  0  0
   31.8196  114.3163   39.9450  H    0  0  0  0  0  0
   23.3836  117.0284   40.0977  H    0  0  0  0  0  0
   23.7945  115.9720   37.6987  H    0  0  0  0  0  0
   25.9109  114.2877   39.0831  H    0  0  0  0  0  0
   26.2960  116.3588   36.9817  H    0  0  0  0  0  0
   27.1407  116.7101   39.9005  H    0  0  0  0  0  0
   28.4914  117.9308   38.4484  H    0  0  0  0  0  0
   27.1951  118.6247   37.6178  H    0  0  0  0  0  0
   23.8555  115.3562   46.1742  H    0  0  0  0  0  0
   22.4784  114.7550   44.3131  H    0  0  0  0  0  0
   24.9374  114.2041   42.7559  H    0  0  0  0  0  0
   23.1276  116.4522   42.0016  H    0  0  0  0  0  0
   25.9423  116.4780   43.2741  H    0  0  0  0  0  0
   23.8696  118.7821   42.5290  H    0  0  0  0  0  0
   25.4135  118.3886   41.8080  H    0  0  0  0  0  0
  1  2  1  0  0  0
  1 46  1  0  0  0
  1 50  1  0  0  0
  1101  1  0  0  0
  2  3  1  0  0  0
  2 43  1  0  0  0
  2102  1  0  0  0
  3  4  1  0  0  0
  3 44  1  0  0  0
  3103  1  0  0  0
  4  5  1  0  0  0
  4 45  1  0  0  0
  4104  1  0  0  0
  5  6  1  0  0  0
  5 46  1  0  0  0
  5105  1  0  0  0
  6 47  1  0  0  0
  6106  1  0  0  0
  6107  1  0  0  0
  7  8  1  0  0  0
  7 51  1  0  0  0
  7 55  1  0  0  0
  7108  1  0  0  0
  8  9  1  0  0  0
  8 48  1  0  0  0
  8109  1  0  0  0
  9 10  1  0  0  0
  9 49  1  0  0  0
  9110  1  0  0  0
 10 11  1  0  0  0
 10 50  1  0  0  0
 10111  1  0  0  0
 11 12  1  0  0  0
 11 51  1  0  0  0
 11112  1  0  0  0
 12 52  1  0  0  0
 12 78  1  0  0  0
 12 79  1  0  0  0
 13 14  1  0  0  0
 13 56  1  0  0  0
 13 60  1  0  0  0
 13113  1  0  0  0
 14 15  1  0  0  0
 14 53  1  0  0  0
 14114  1  0  0  0
 15 16  1  0  0  0
 15 54  1  0  0  0
 15115  1  0  0  0
 16 17  1  0  0  0
 16 55  1  0  0  0
 16116  1  0  0  0
 17 18  1  0  0  0
 17 56  1  0  0  0
 17117  1  0  0  0
 18 57  1  0  0  0
 18118  1  0  0  0
 18119  1  0  0  0
 19 20  1  0  0  0
 19 61  1  0  0  0
 19 65  1  0  0  0
 19120  1  0  0  0
 20 21  1  0  0  0
 20 58  1  0  0  0
 20121  1  0  0  0
 21 22  1  0  0  0
 21 59  1  0  0  0
 21122  1  0  0  0
 22 23  1  0  0  0
 22 60  1  0  0  0
 22123  1  0  0  0
 23 24  1  0  0  0
 23 61  1  0  0  0
 23124  1  0  0  0
 24 62  1  0  0  0
 24125  1  0  0  0
 24126  1  0  0  0
 25 26  1  0  0  0
 25 66  1  0  0  0
 25 70  1  0  0  0
 25127  1  0  0  0
 26 27  1  0  0  0
 26 63  1  0  0  0
 26128  1  0  0  0
 27 28  1  0  0  0
 27 64  1  0  0  0
 27129  1  0  0  0
 28 29  1  0  0  0
 28 65  1  0  0  0
 28130  1  0  0  0
 29 30  1  0  0  0
 29 66  1  0  0  0
 29131  1  0  0  0
 30 67  1  0  0  0
 30132  1  0  0  0
 30133  1  0  0  0
 31 32  1  0  0  0
 31 71  1  0  0  0
 31 75  1  0  0  0
 31134  1  0  0  0
 32 33  1  0  0  0
 32 68  1  0  0  0
 32135  1  0  0  0
 33 34  1  0  0  0
 33 69  1  0  0  0
 33136  1  0  0  0
 34 35  1  0  0  0
 34 70  1  0  0  0
 34137  1  0  0  0
 35 36  1  0  0  0
 35 71  1  0  0  0
 35138  1  0  0  0
 36 72  1  0  0  0
 36139  1  0  0  0
 36140  1  0  0  0
 37 38  1  0  0  0
 37 45  1  0  0  0
 37 76  1  0  0  0
 37141  1  0  0  0
 38 39  1  0  0  0
 38 73  1  0  0  0
 38142  1  0  0  0
 39 40  1  0  0  0
 39 74  1  0  0  0
 39143  1  0  0  0
 40 41  1  0  0  0
 40 75  1  0  0  0
 40144  1  0  0  0
 41 42  1  0  0  0
 41 76  1  0  0  0
 41145  1  0  0  0
 42 77  1  0  0  0
 42146  1  0  0  0
 42147  1  0  0  0
 43 80  1  0  0  0
 44 81  1  0  0  0
 47 82  1  0  0  0
 48 83  1  0  0  0
 49 84  1  0  0  0
 52 85  1  0  0  0
 53 86  1  0  0  0
 54 87  1  0  0  0
 57 88  1  0  0  0
 58 89  1  0  0  0
 59 90  1  0  0  0
 62 91  1  0  0  0
 63 92  1  0  0  0
 64 93  1  0  0  0
 67 94  1  0  0  0
 68 95  1  0  0  0
 69 96  1  0  0  0
 72 97  1  0  0  0
 73 98  1  0  0  0
 74 99  1  0  0  0
 77100  1  0  0  0
M  END
> <s_m_entry_id>
15

> <s_m_Source_Path>
/home/emilio/Dropbox/sims/SAMPL9/work/receptor

> <s_m_Source_File>
bCD.mol2

> <i_m_Source_File_Index>
1

$$$$

