CPZ1apsS
                    3D
 Structure written by MMmdl.
 41 43  0  0  1  0            999 V2000
   22.0081  117.2112   46.6133 C   0  0  0  0  0  0
   21.8032  117.6327   45.2486 C   0  0  0  0  0  0
   22.6946  116.0116   46.8416 C   0  0  0  0  0  0
   22.2862  116.8420   44.1750 C   0  0  0  0  0  0
   22.8025  111.9654   43.0306 C   0  0  0  0  0  0
   22.5570  110.7053   43.6090 C   0  0  0  0  0  0
   23.2280  111.5791   45.7889 C   0  0  0  0  0  0
   23.1801  115.2113   45.7894 C   0  0  0  0  0  0
   23.4553  112.8552   45.2303 C   0  0  0  0  0  0
   22.9450  115.6349   44.4492 C   0  0  0  0  0  0
   23.2310  113.0369   43.8379 C   0  0  0  0  0  0
   22.7694  110.5156   44.9900 C   0  0  0  0  0  0
   28.2814  116.3492   43.6398 C   0  0  0  0  0  0
   28.7394  116.2858   46.0494 C   0  0  0  0  0  0
   26.4299  114.0985   46.2712 C   0  0  0  0  0  0
   25.0075  113.9910   46.8772 C   0  0  0  0  0  0
   26.6381  115.2232   45.2350 C   0  0  0  0  0  0
   23.8251  113.9810   46.0034 N   0  0  0  0  0  0
   28.0420  115.6162   44.9247 N   0  3  0  0  0  0
   23.4511  114.6205   43.0972 S   0  0  0  0  0  0
   22.4453  108.9816   45.7075 Cl  0  0  0  0  0  0
   21.6184  117.8032   47.3942 H   0  0  0  0  0  0
   21.2572  118.5433   45.0406 H   0  0  0  0  0  0
   22.8021  115.7039   47.8678 H   0  0  0  0  0  0
   22.1132  117.1559   43.1600 H   0  0  0  0  0  0
   22.6328  112.1221   41.9709 H   0  0  0  0  0  0
   22.1907  109.8942   42.9952 H   0  0  0  0  0  0
   23.3642  111.4037   46.8423 H   0  0  0  0  0  0
   27.8797  117.3603   43.6888 H   0  0  0  0  0  0
   27.8373  115.8339   42.7899 H   0  0  0  0  0  0
   29.3467  116.4328   43.4352 H   0  0  0  0  0  0
   28.3100  117.2685   46.2500 H   0  0  0  0  0  0
   29.7989  116.4201   45.8324 H   0  0  0  0  0  0
   28.6725  115.6895   46.9642 H   0  0  0  0  0  0
   27.0591  114.2786   47.1456 H   0  0  0  0  0  0
   26.7682  113.1384   45.8763 H   0  0  0  0  0  0
   24.9864  113.0607   47.3992 H   0  0  0  0  0  0
   24.9146  114.8294   47.6028 H   0  0  0  0  0  0
   26.1267  114.9069   44.3184 H   0  0  0  0  0  0
   26.0964  116.1117   45.5717 H   0  0  0  0  0  0
   28.5295  114.7386   44.8110 H   0  0  0  0  0  0
  1  2  2  0  0  0
  1  3  1  0  0  0
  1 22  1  0  0  0
  2  4  1  0  0  0
  2 23  1  0  0  0
  3  8  2  0  0  0
  3 24  1  0  0  0
  4 10  2  0  0  0
  4 25  1  0  0  0
  5  6  2  0  0  0
  5 11  1  0  0  0
  5 26  1  0  0  0
  6 12  1  0  0  0
  6 27  1  0  0  0
  7  9  1  0  0  0
  7 12  2  0  0  0
  7 28  1  0  0  0
  8 10  1  0  0  0
  8 18  1  0  0  0
  9 11  2  0  0  0
  9 18  1  0  0  0
 10 20  1  0  0  0
 11 20  1  0  0  0
 12 21  1  0  0  0
 13 19  1  0  0  0
 13 29  1  0  0  0
 13 30  1  0  0  0
 13 31  1  0  0  0
 14 19  1  0  0  0
 14 32  1  0  0  0
 14 33  1  0  0  0
 14 34  1  0  0  0
 15 16  1  0  0  0
 15 17  1  0  0  0
 15 35  1  0  0  0
 15 36  1  0  0  0
 16 18  1  0  0  0
 16 37  1  0  0  0
 16 38  1  0  0  0
 17 19  1  0  0  0
 17 39  1  0  0  0
 17 40  1  0  0  0
 19 41  1  0  0  0
M  CHG  1  19   1
M  END
> <s_m_entry_id>
400

> <s_m_entry_name>
CPZ1apsS.1

> <s_m_Source_Path>
/home/emilio/Dropbox/SAMPL9-eglab/mCD/ligsdfs

> <s_m_Source_File>
CPZ1apsS.sdf

> <i_m_Source_File_Index>
1

> <i_lp_mmshare_version>
47013

> <s_epik_input>
W2NIXTFbY0hdW2NIXVtjSF1jKGMxMilTYzNjKFtjSF1jKENsKVtjSF1bY0hdMylOMltDSDJdW0NIMl1bQ0gyXU4oW0NIM10pW0NIM10=

> <s_epik_cmdline>
J2VwaWtfcHl0aG9uJywgJy1waHQnLCAnNC4wJywgJy1waCcsICc3LjQnLCAnLXRuJywgJzgnLCAnLW1hJywgJzIwMCcsICctaW1hZScsICc8aW5maWxlLm1hZT4nLCAnLW9tYWUnLCAnPG91dGZpbGUubWFlPic=

> <r_epik_Ionization_Penalty>
  0.0036

> <r_epik_Ionization_Penalty_Charging>
  0.0036

> <r_epik_Ionization_Penalty_Neutral>
  0.0000

> <r_epik_State_Penalty>
  0.0025

> <r_epik_Charging_Adjusted_Penalty>
0.00607902823301679

> <i_epik_Tot_Q>
1

> <i_epik_Tot_abs_Q>
1

> <s_lp_Force_Field>
OPLS3e

> <r_lp_Energy>
54.329832

> <b_lp_Chiralities_Consistent>
1

> <s_lp_Variant>
CPZ-1

> <s_m_job_name>
ligprep_4

> <chiral flag>
1

> <version>
0

> <i_f3d_flags>
0

> <s_m_subgroup_title>
bCDq->psS

> <s_m_subgroupid>
bCDq_copy1->psS_copy1_copy1

> <b_m_subgroup_collapsed>
0

$$$$
