PMZ1apsS
                    3D
 Structure written by MMmdl.
 41 43  0  0  1  0            999 V2000
   22.4274  117.4555   46.4845 C   0  0  0  0  0  0
   22.7664  110.5033   44.9904 C   0  0  0  0  0  0
   22.3826  117.9030   45.1624 C   0  0  0  0  0  0
   22.7939  110.6416   43.6030 C   0  0  0  0  0  0
   22.9197  116.1570   46.7889 C   0  0  0  0  0  0
   23.1114  111.5863   45.8140 C   0  0  0  0  0  0
   22.7794  117.0571   44.1041 C   0  0  0  0  0  0
   22.8687  111.9484   43.0616 C   0  0  0  0  0  0
   23.2146  115.2340   45.7842 C   0  0  0  0  0  0
   23.4302  112.8678   45.2197 C   0  0  0  0  0  0
   23.1519  115.7331   44.4081 C   0  0  0  0  0  0
   23.2338  113.0459   43.8623 C   0  0  0  0  0  0
   27.8267  116.4787   43.3119 C   0  0  0  0  0  0
   28.9476  115.8121   45.4344 C   0  0  0  0  0  0
   26.4207  114.0068   45.8993 C   0  0  0  0  0  0
   25.1370  113.9926   46.7769 C   0  0  0  0  0  0
   26.5340  115.3454   45.1916 C   0  0  0  0  0  0
   23.8120  113.9620   46.0796 N   0  0  0  0  0  0
   27.8604  115.4994   44.4359 N   0  3  0  0  0  0
   23.4454  114.6378   43.0407 S   0  0  0  0  0  0
   22.0711  118.1234   47.2559 H   0  0  0  0  0  0
   22.6460  109.5119   45.4383 H   0  0  0  0  0  0
   22.0512  118.8883   44.9477 H   0  0  0  0  0  0
   22.6240  109.7120   43.0847 H   0  0  0  0  0  0
   23.0572  115.8876   47.8005 H   0  0  0  0  0  0
   23.2592  111.4770   46.8775 H   0  0  0  0  0  0
   22.7037  117.4568   43.1127 H   0  0  0  0  0  0
   22.6726  112.0916   41.9917 H   0  0  0  0  0  0
   28.7791  116.6981   42.8651 H   0  0  0  0  0  0
   27.3902  117.4084   43.6858 H   0  0  0  0  0  0
   27.1812  116.1241   42.4851 H   0  0  0  0  0  0
   28.6065  116.7397   45.8000 H   0  0  0  0  0  0
   29.9426  115.8741   44.9448 H   0  0  0  0  0  0
   28.9544  115.0562   46.1749 H   0  0  0  0  0  0
   27.4327  113.8181   46.4101 H   0  0  0  0  0  0
   26.2984  113.2936   45.0892 H   0  0  0  0  0  0
   25.1286  112.9414   47.2575 H   0  0  0  0  0  0
   25.2317  114.6468   47.6480 H   0  0  0  0  0  0
   25.8106  115.4022   44.3814 H   0  0  0  0  0  0
   26.2549  116.1618   45.8788 H   0  0  0  0  0  0
   28.0857  114.5829   43.9992 H   0  0  0  0  0  0
  1  3  2  0  0  0
  1  5  1  0  0  0
  1 21  1  0  0  0
  2  4  2  0  0  0
  2  6  1  0  0  0
  2 22  1  0  0  0
  3  7  1  0  0  0
  3 23  1  0  0  0
  4  8  1  0  0  0
  4 24  1  0  0  0
  5  9  2  0  0  0
  5 25  1  0  0  0
  6 10  2  0  0  0
  6 26  1  0  0  0
  7 11  2  0  0  0
  7 27  1  0  0  0
  8 12  2  0  0  0
  8 28  1  0  0  0
  9 11  1  0  0  0
  9 18  1  0  0  0
 10 12  1  0  0  0
 10 18  1  0  0  0
 11 20  1  0  0  0
 12 20  1  0  0  0
 13 19  1  0  0  0
 13 29  1  0  0  0
 13 30  1  0  0  0
 13 31  1  0  0  0
 14 19  1  0  0  0
 14 32  1  0  0  0
 14 33  1  0  0  0
 14 34  1  0  0  0
 15 16  1  0  0  0
 15 17  1  0  0  0
 15 35  1  0  0  0
 15 36  1  0  0  0
 16 18  1  0  0  0
 16 37  1  0  0  0
 16 38  1  0  0  0
 17 19  1  0  0  0
 17 39  1  0  0  0
 17 40  1  0  0  0
 19 41  1  0  0  0
M  CHG  1  19   1
M  END
> <s_m_entry_id>
398

> <s_m_entry_name>
PMZ1apsS-q.1

> <s_m_Source_Path>
/home/emilio/Dropbox/sims/SAMPL9/work/FFEngine/postc/bCDpsSf/ligands

> <s_m_Source_File>
PMZ1apsS-q.sdf

> <i_m_Source_File_Index>
1

> <r_epik_Ionization_Penalty>
  0.0034

> <r_epik_State_Penalty>
  0.0024

> <i_epik_Tot_Q>
1

> <s_m_job_name>
ligprep_4

> <chiral flag>
1

> <version>
0

> <i_f3d_flags>
0

> <s_m_subgroup_title>
bCDq->psS

> <s_m_subgroupid>
bCDq_copy1->psS_copy1_copy1

> <b_m_subgroup_collapsed>
0

$$$$
