TFP1apsS
                    3D
 Structure written by MMmdl.
 50 53  0  0  1  0            999 V2000
   22.6737  117.5300   46.4658 C   0  0  0  0  0  0
   22.5945  117.9434   45.1416 C   0  0  0  0  0  0
   23.0442  116.2208   46.7671 C   0  0  0  0  0  0
   22.8664  117.0386   44.1217 C   0  0  0  0  0  0
   22.9321  111.9468   43.0351 C   0  0  0  0  0  0
   22.6930  110.6965   43.5934 C   0  0  0  0  0  0
   23.1061  111.6149   45.7801 C   0  0  0  0  0  0
   23.3472  115.2834   45.7582 C   0  0  0  0  0  0
   23.3769  112.8921   45.2449 C   0  0  0  0  0  0
   23.2253  115.7219   44.4201 C   0  0  0  0  0  0
   23.2586  113.0350   43.8458 C   0  0  0  0  0  0
   22.7685  110.5219   44.9760 C   0  0  0  0  0  0
   28.0907  116.3112   43.7382 C   0  0  0  0  0  0
   28.9908  114.2382   44.6613 C   0  0  0  0  0  0
   29.4920  116.9405   43.7784 C   0  0  0  0  0  0
   30.3995  114.8683   44.6888 C   0  0  0  0  0  0
   26.2131  113.8811   45.7619 C   0  0  0  0  0  0
   25.0983  113.9397   46.8058 C   0  0  0  0  0  0
   26.5507  114.7792   44.6058 C   0  0  0  0  0  0
   23.8101  113.9767   46.0485 N   0  0  0  0  0  0
   27.9464  115.2897   44.7687 N   0  0  0  0  0  0
   30.5259  115.8901   43.6434 N   0  3  0  0  0  0
   23.5391  108.8230   46.3968 F   0  0  0  0  0  0
   22.3293  108.1934   44.7219 F   0  0  0  0  0  0
   21.4131  109.2357   46.3802 F   0  0  0  0  0  0
   23.4452  114.6046   43.0862 S   0  0  0  0  0  0
   22.5075  109.1622   45.6223 C   0  0  0  0  0  0
   22.4528  118.2254   47.2620 H   0  0  0  0  0  0
   22.3099  118.9581   44.9055 H   0  0  0  0  0  0
   23.0898  115.9665   47.8119 H   0  0  0  0  0  0
   22.7777  117.3593   43.0936 H   0  0  0  0  0  0
   22.8457  112.0721   41.9655 H   0  0  0  0  0  0
   22.4378  109.8725   42.9433 H   0  0  0  0  0  0
   23.1631  111.4326   46.8411 H   0  0  0  0  0  0
   27.3415  117.0954   43.9188 H   0  0  0  0  0  0
   27.8908  115.8541   42.7682 H   0  0  0  0  0  0
   28.8207  113.6700   43.7444 H   0  0  0  0  0  0
   28.9105  113.5435   45.5042 H   0  0  0  0  0  0
   29.5860  117.6396   42.9493 H   0  0  0  0  0  0
   29.6623  117.5036   44.6992 H   0  0  0  0  0  0
   30.6289  115.3002   45.6683 H   0  0  0  0  0  0
   31.1426  114.0803   44.5191 H   0  0  0  0  0  0
   26.8212  114.4918   46.3753 H   0  0  0  0  0  0
   26.6027  112.8878   45.6613 H   0  0  0  0  0  0
   25.1473  113.1786   47.6146 H   0  0  0  0  0  0
   25.1785  114.9214   47.2683 H   0  0  0  0  0  0
   26.3764  114.2781   43.6465 H   0  0  0  0  0  0
   25.8417  115.6069   44.6768 H   0  0  0  0  0  0
   30.4179  115.4457   42.7484 H   0  0  0  0  0  0
   31.4478  116.3093   43.6815 H   0  0  0  0  0  0
  1  2  2  0  0  0
  1  3  1  0  0  0
  1 28  1  0  0  0
  2  4  1  0  0  0
  2 29  1  0  0  0
  3  8  2  0  0  0
  3 30  1  0  0  0
  4 10  2  0  0  0
  4 31  1  0  0  0
  5  6  2  0  0  0
  5 11  1  0  0  0
  5 32  1  0  0  0
  6 12  1  0  0  0
  6 33  1  0  0  0
  7  9  1  0  0  0
  7 12  2  0  0  0
  7 34  1  0  0  0
  8 10  1  0  0  0
  8 20  1  0  0  0
  9 11  2  0  0  0
  9 20  1  0  0  0
 10 26  1  0  0  0
 11 26  1  0  0  0
 12 27  1  0  0  0
 13 15  1  0  0  0
 13 21  1  0  0  0
 13 35  1  0  0  0
 13 36  1  0  0  0
 14 16  1  0  0  0
 14 21  1  0  0  0
 14 37  1  0  0  0
 14 38  1  0  0  0
 15 22  1  0  0  0
 15 39  1  0  0  0
 15 40  1  0  0  0
 16 22  1  0  0  0
 16 41  1  0  0  0
 16 42  1  0  0  0
 17 18  1  0  0  0
 17 19  1  0  0  0
 17 43  1  0  0  0
 17 44  1  0  0  0
 18 20  1  0  0  0
 18 45  1  0  0  0
 18 46  1  0  0  0
 19 21  1  0  0  0
 19 47  1  0  0  0
 19 48  1  0  0  0
 22 49  1  0  0  0
 22 50  1  0  0  0
 23 27  1  0  0  0
 24 27  1  0  0  0
 25 27  1  0  0  0
M  CHG  1  22   1
M  END
> <s_m_entry_id>
410

> <s_m_entry_name>
TFP1apsS.1

> <s_m_Source_Path>
/home/emilio/Dropbox/SAMPL9-eglab/mCD/ligsdfs

> <s_m_Source_File>
TFP1apsS.sdf

> <i_m_Source_File_Index>
1

> <i_lp_mmshare_version>
47013

> <s_epik_input>
W2NIXTFbY0hdW2NIXVtjSF1jKGMxMilTYzNjKFtjSF1jKEMoRikoRilGKVtjSF1bY0hdMylOMltDSDJdW0NIMl1bQ0gyXU40W0NIMl1bQ0gyXVtOSF1bQ0gyXVtDSDJdNA==

> <s_epik_cmdline>
J2VwaWtfcHl0aG9uJywgJy1waHQnLCAnNC4wJywgJy1waCcsICc3LjQnLCAnLXRuJywgJzgnLCAnLW1hJywgJzIwMCcsICctaW1hZScsICc8aW5maWxlLm1hZT4nLCAnLW9tYWUnLCAnPG91dGZpbGUubWFlPic=

> <r_epik_Ionization_Penalty>
  0.0078

> <r_epik_Ionization_Penalty_Charging>
  0.0071

> <r_epik_Ionization_Penalty_Neutral>
  0.0007

> <r_epik_State_Penalty>
  0.0420

> <r_epik_Charging_Adjusted_Penalty>
0.0491285084707666

> <i_epik_Tot_Q>
1

> <i_epik_Tot_abs_Q>
1

> <s_lp_Force_Field>
OPLS3e

> <r_lp_Energy>
60.619284

> <b_lp_Chiralities_Consistent>
1

> <s_lp_Variant>
TFP-1

> <s_m_job_name>
ligprep_4

> <chiral flag>
1

> <version>
0

> <i_f3d_flags>
0

> <s_m_subgroup_title>
bCDq->psS

> <s_m_subgroupid>
bCDq_copy1->psS_copy1_copy1

> <b_m_subgroup_collapsed>
0

$$$$
