PMT1assR
                    3D
 Structure written by MMmdl.
 41 43  0  0  1  0            999 V2000
   32.5483  111.2130   44.4670 C   0  0  0  0  0  0
   34.3107  104.8219   43.2802 C   0  0  0  0  0  0
   32.9440  111.6975   43.2008 C   0  0  0  0  0  0
   34.7744  105.0539   41.9681 C   0  0  0  0  0  0
   32.1056  109.8860   44.6232 C   0  0  0  0  0  0
   33.3216  105.6516   43.8488 C   0  0  0  0  0  0
   32.9258  110.8405   42.0824 C   0  0  0  0  0  0
   34.2783  106.1402   41.2255 C   0  0  0  0  0  0
   32.1092  109.0074   43.5084 C   0  0  0  0  0  0
   32.8063  106.7294   43.1010 C   0  0  0  0  0  0
   32.5458  109.4979   42.2478 C   0  0  0  0  0  0
   33.3136  106.9877   41.8017 C   0  0  0  0  0  0
   28.3070  106.1989   44.4086 C   0  0  0  0  0  0
   28.1645  105.5116   41.7706 C   0  0  0  0  0  0
   30.5578  105.5135   41.8147 C   0  0  0  0  0  0
   30.6351  107.1321   44.2912 C   0  0  0  0  0  0
   29.2835  106.9366   43.4865 C   0  0  1  0  0  0
   31.8520  107.6228   43.6211 N   0  0  0  0  0  0
   29.3511  106.3336   42.1045 N   0  3  0  0  0  0
   32.7238  108.3825   40.8878 S   0  0  0  0  0  0
   32.5914  111.8693   45.3266 H   0  0  0  0  0  0
   34.7271  104.0185   43.8697 H   0  0  0  0  0  0
   33.2873  112.7157   43.0881 H   0  0  0  0  0  0
   35.5349  104.4151   41.5393 H   0  0  0  0  0  0
   31.8406  109.5424   45.6087 H   0  0  0  0  0  0
   33.0220  105.4900   44.8724 H   0  0  0  0  0  0
   33.2326  111.2023   41.1053 H   0  0  0  0  0  0
   34.6463  106.3482   40.2240 H   0  0  0  0  0  0
   28.2661  106.6521   45.3981 H   0  0  0  0  0  0
   28.6004  105.1611   44.5565 H   0  0  0  0  0  0
   27.2740  106.2013   44.0515 H   0  0  0  0  0  0
   27.8629  104.8184   42.5566 H   0  0  0  0  0  0
   28.2839  104.9499   40.8392 H   0  0  0  0  0  0
   27.3085  106.1314   41.6294 H   0  0  0  0  0  0
   30.6234  104.6393   42.4804 H   0  0  0  0  0  0
   31.4859  106.0789   41.8991 H   0  0  0  0  0  0
   30.5444  105.1320   40.7834 H   0  0  0  0  0  0
   30.4169  107.8100   45.1235 H   0  0  0  0  0  0
   30.9117  106.1876   44.7791 H   0  0  0  0  0  0
   28.8537  107.9241   43.3640 H   0  0  0  0  0  0
   29.3587  107.1196   41.4621 H   0  0  0  0  0  0
  1  3  2  0  0  0
  1  5  1  0  0  0
  1 21  1  0  0  0
  2  4  2  0  0  0
  2  6  1  0  0  0
  2 22  1  0  0  0
  3  7  1  0  0  0
  3 23  1  0  0  0
  4  8  1  0  0  0
  4 24  1  0  0  0
  5  9  2  0  0  0
  5 25  1  0  0  0
  6 10  2  0  0  0
  6 26  1  0  0  0
  7 11  2  0  0  0
  7 27  1  0  0  0
  8 12  2  0  0  0
  8 28  1  0  0  0
  9 11  1  0  0  0
  9 18  1  0  0  0
 10 12  1  0  0  0
 10 18  1  0  0  0
 11 20  1  0  0  0
 12 20  1  0  0  0
 13 17  1  0  0  0
 13 29  1  0  0  0
 13 30  1  0  0  0
 13 31  1  0  0  0
 14 19  1  0  0  0
 14 32  1  0  0  0
 14 33  1  0  0  0
 14 34  1  0  0  0
 15 19  1  0  0  0
 15 35  1  0  0  0
 15 36  1  0  0  0
 15 37  1  0  0  0
 16 17  1  0  0  0
 16 18  1  0  0  0
 16 38  1  0  0  0
 16 39  1  0  0  0
 17 19  1  0  0  0
 17 40  1  0  0  0
 19 41  1  0  0  0
M  CHG  1  19   1
M  END
> <s_m_entry_id>
509

> <s_m_entry_name>
PMT1assR.1

> <s_m_Source_Path>
/home/emilio/Dropbox/SAMPL9-eglab/mCD/ligsdfs

> <s_m_Source_File>
PMT1assR.sdf

> <i_m_Source_File_Index>
1

> <i_lp_mmshare_version>
47013

> <s_epik_input>
W2NIXTFbY0hdW2NIXVtjSF1jKGMxMilTYzNjKFtjSF1bY0hdW2NIXVtjSF0zKU4yW0NIMl1bQ0BIXShbQ0gzXSlOKFtDSDNdKVtDSDNd

> <s_epik_cmdline>
J2VwaWtfcHl0aG9uJywgJy1waHQnLCAnNC4wJywgJy1waCcsICc3LjQnLCAnLXRuJywgJzgnLCAnLW1hJywgJzIwMCcsICctaW1hZScsICc8aW5maWxlLm1hZT4nLCAnLW9tYWUnLCAnPG91dGZpbGUubWFlPic=

> <r_epik_Ionization_Penalty>
  0.0045

> <r_epik_Ionization_Penalty_Charging>
  0.0045

> <r_epik_Ionization_Penalty_Neutral>
  0.0000

> <r_epik_State_Penalty>
  0.0032

> <r_epik_Charging_Adjusted_Penalty>
0.00770832931686598

> <i_epik_Tot_Q>
1

> <i_epik_Tot_abs_Q>
1

> <s_lp_Force_Field>
OPLS3e

> <r_lp_Energy>
58.361695

> <b_lp_Chiralities_Consistent>
1

> <s_lp_Variant>
PMT-1

> <s_m_job_name>
ligprep_4

> <chiral flag>
1

> <version>
0

> <i_f3d_flags>
0

> <s_m_subgroup_title>
bCDq->ssR d_copy1

> <s_m_subgroupid>
bCDq_copy1->imported_structures_copy1

> <b_m_subgroup_collapsed>
0

$$$$
