PMZ1assR
                    3D
 Schrodinger Suite 2019-4.
 41 43  0  0  1  0            999 V2000
   32.2004  111.2921   44.3687  C    0  0  0  0  0  0
   34.2961  104.8488   43.2671  C    0  0  0  0  0  0
   32.5570  111.7321   43.1051  C    0  0  0  0  0  0
   34.9213  105.1893   42.0337  C    0  0  0  0  0  0
   31.9659  109.9053   44.6233  C    0  0  0  0  0  0
   33.3653  105.6712   43.9129  C    0  0  0  0  0  0
   32.7377  110.7831   42.0845  C    0  0  0  0  0  0
   34.4390  106.2532   41.3311  C    0  0  0  0  0  0
   32.2055  109.0095   43.5408  C    0  0  0  0  0  0
   32.9268  106.7561   43.1726  C    0  0  0  0  0  0
   32.4582  109.4380   42.2273  C    0  0  0  0  0  0
   33.3873  107.0302   41.8595  C    0  0  0  0  0  0
   30.1674  104.3047   40.1688  C    0  0  0  0  0  0
   28.0376  104.7996   41.4040  C    0  0  0  0  0  0
   29.4420  106.7172   43.1911  C    0  0  0  0  0  0
   30.5497  107.1388   44.1860  C    0  0  0  0  0  0
   30.1087  105.8483   42.1200  C    0  0  0  0  0  0
   31.8461  107.6068   43.6563  N    0  0  0  0  0  0
   29.3086  105.4101   40.8792  N    0  3  0  0  0  0
   32.7442  108.3716   40.8658  S    0  0  0  0  0  0
   32.0747  111.9736   45.1945  H    0  0  0  0  0  0
   34.6511  104.0827   43.9080  H    0  0  0  0  0  0
   32.6914  112.8454   42.9455  H    0  0  0  0  0  0
   35.5204  104.4224   41.4526  H    0  0  0  0  0  0
   31.7627  109.4563   45.5962  H    0  0  0  0  0  0
   33.0001  105.3897   44.8645  H    0  0  0  0  0  0
   33.0100  111.2089   41.1085  H    0  0  0  0  0  0
   34.7517  106.3918   40.3049  H    0  0  0  0  0  0
   30.1200  103.3948   40.8956  H    0  0  0  0  0  0
   31.2134  104.5546   40.1218  H    0  0  0  0  0  0
   29.6656  104.0499   39.2503  H    0  0  0  0  0  0
   27.5782  104.5952   40.4088  H    0  0  0  0  0  0
   27.3502  105.4891   41.9041  H    0  0  0  0  0  0
   28.1986  103.7923   41.8882  H    0  0  0  0  0  0
   28.6064  106.1230   43.7579  H    0  0  0  0  0  0
   28.9168  107.5442   42.8259  H    0  0  0  0  0  0
   30.1703  107.9167   44.9071  H    0  0  0  0  0  0
   30.7586  106.3060   44.9050  H    0  0  0  0  0  0
   30.9687  106.3837   41.6975  H    0  0  0  0  0  0
   30.3771  104.9409   42.6310  H    0  0  0  0  0  0
   29.0757  106.2396   40.2308  H    0  0  0  0  0  0
  1  3  2  0  0  0
  1  5  1  0  0  0
  1 21  1  0  0  0
  2  4  2  0  0  0
  2  6  1  0  0  0
  2 22  1  0  0  0
  3  7  1  0  0  0
  3 23  1  0  0  0
  4  8  1  0  0  0
  4 24  1  0  0  0
  5  9  2  0  0  0
  5 25  1  0  0  0
  6 10  2  0  0  0
  6 26  1  0  0  0
  7 11  2  0  0  0
  7 27  1  0  0  0
  8 12  2  0  0  0
  8 28  1  0  0  0
  9 11  1  0  0  0
  9 18  1  0  0  0
 10 12  1  0  0  0
 10 18  1  0  0  0
 11 20  1  0  0  0
 12 20  1  0  0  0
 13 19  1  0  0  0
 13 29  1  0  0  0
 13 30  1  0  0  0
 13 31  1  0  0  0
 14 19  1  0  0  0
 14 32  1  0  0  0
 14 33  1  0  0  0
 14 34  1  0  0  0
 15 16  1  0  0  0
 15 17  1  0  0  0
 15 35  1  0  0  0
 15 36  1  0  0  0
 16 18  1  0  0  0
 16 37  1  0  0  0
 16 38  1  0  0  0
 17 19  1  0  0  0
 17 39  1  0  0  0
 17 40  1  0  0  0
 19 41  1  0  0  0
M  CHG  1  19   1
M  END
> <s_m_entry_id>
180

> <s_m_Source_Path>
/home/emilio/Dropbox/SAMPL9-eglab/mCD/ligsdfs

> <s_m_Source_File>
PMZ1assR.sdf

> <i_m_Source_File_Index>
1

> <r_epik_Ionization_Penalty>
  0.0034

> <r_epik_State_Penalty>
  0.0024

> <i_epik_Tot_Q>
1

> <s_m_job_name>
ligprep_4

> <i_f3d_flags>
0

$$$$

