TDZNS1assR
                    3D
 Structure written by MMmdl.
 52 55  0  0  1  0            999 V2000
   31.9303  111.3357   44.2513 C   0  0  0  0  0  0
   32.3466  111.7931   42.9896 C   0  0  0  0  0  0
   31.7523  109.9574   44.4796 C   0  0  0  0  0  0
   32.5865  110.8676   41.9586 C   0  0  0  0  0  0
   34.2764  106.1592   41.2379 C   0  0  0  0  0  0
   34.7821  105.0669   41.9642 C   0  0  0  0  0  0
   33.3357  105.6650   43.8334 C   0  0  0  0  0  0
   31.9905  109.0088   43.4520 C   0  0  0  0  0  0
   32.8008  106.7600   43.1101 C   0  0  0  0  0  0
   32.4181  109.4875   42.1864 C   0  0  0  0  0  0
   33.3041  107.0061   41.8060 C   0  0  0  0  0  0
   34.3143  104.8252   43.2687 C   0  0  0  0  0  0
   27.5669  105.7431   40.8934 C   0  0  0  0  0  0
   27.5280  104.2579   41.2132 C   0  0  0  0  0  0
   29.0184  106.2250   40.7684 C   0  0  0  0  0  0
   28.3648  103.9423   42.4653 C   0  0  0  0  0  0
   29.8323  105.9250   42.0602 C   0  0  1  0  0  0
   30.6475  103.9895   43.4293 C   0  0  0  0  0  0
   36.6295  103.1459   43.6792 C   0  0  0  0  0  0
   29.4480  106.8187   43.2937 C   0  0  0  0  0  0
   30.6421  107.0735   44.2505 C   0  0  0  0  0  0
   31.8271  107.6212   43.6705 N   0  0  0  0  0  0
   29.7620  104.4569   42.3294 N   0  3  1  0  0  0
   32.7453  108.3808   40.8501 S   0  0  0  0  0  0
   34.9311  103.4759   44.2271 S   0  0  0  0  0  0
   31.7680  112.0442   45.0516 H   0  0  0  0  0  0
   32.5011  112.8492   42.8155 H   0  0  0  0  0  0
   31.4699  109.6555   45.4741 H   0  0  0  0  0  0
   32.9202  111.2156   40.9919 H   0  0  0  0  0  0
   34.6473  106.3612   40.2439 H   0  0  0  0  0  0
   35.5326  104.4342   41.5143 H   0  0  0  0  0  0
   33.0456  105.4646   44.8519 H   0  0  0  0  0  0
   27.0194  105.9798   39.9741 H   0  0  0  0  0  0
   27.0532  106.2519   41.7012 H   0  0  0  0  0  0
   26.4892  103.9570   41.3654 H   0  0  0  0  0  0
   27.8928  103.7105   40.3488 H   0  0  0  0  0  0
   29.4824  105.7394   39.9158 H   0  0  0  0  0  0
   29.0258  107.2607   40.4550 H   0  0  0  0  0  0
   27.8912  104.3550   43.3537 H   0  0  0  0  0  0
   28.3829  102.8622   42.5974 H   0  0  0  0  0  0
   30.8739  106.1545   41.8225 H   0  0  0  0  0  0
   30.2813  104.3097   44.4018 H   0  0  0  0  0  0
   31.6602  104.3702   43.2979 H   0  0  0  0  0  0
   30.7024  102.9007   43.4347 H   0  0  0  0  0  0
   37.0941  102.4064   44.3318 H   0  0  0  0  0  0
   37.2276  104.0567   43.7148 H   0  0  0  0  0  0
   36.6427  102.7538   42.6626 H   0  0  0  0  0  0
   28.9777  107.7437   42.9695 H   0  0  0  0  0  0
   28.6707  106.2982   43.8723 H   0  0  0  0  0  0
   30.3129  107.6483   45.1324 H   0  0  0  0  0  0
   31.0229  106.1521   44.6857 H   0  0  0  0  0  0
   30.1163  104.0258   41.4977 H   0  0  0  0  0  0
  1  2  2  0  0  0
  1  3  1  0  0  0
  1 26  1  0  0  0
  2  4  1  0  0  0
  2 27  1  0  0  0
  3  8  2  0  0  0
  3 28  1  0  0  0
  4 10  2  0  0  0
  4 29  1  0  0  0
  5  6  2  0  0  0
  5 11  1  0  0  0
  5 30  1  0  0  0
  6 12  1  0  0  0
  6 31  1  0  0  0
  7  9  1  0  0  0
  7 12  2  0  0  0
  7 32  1  0  0  0
  8 10  1  0  0  0
  8 22  1  0  0  0
  9 11  2  0  0  0
  9 22  1  0  0  0
 10 24  1  0  0  0
 11 24  1  0  0  0
 12 25  1  0  0  0
 13 14  1  0  0  0
 13 15  1  0  0  0
 13 33  1  0  0  0
 13 34  1  0  0  0
 14 16  1  0  0  0
 14 35  1  0  0  0
 14 36  1  0  0  0
 15 17  1  0  0  0
 15 37  1  0  0  0
 15 38  1  0  0  0
 16 23  1  0  0  0
 16 39  1  0  0  0
 16 40  1  0  0  0
 17 20  1  0  0  0
 17 23  1  0  0  0
 17 41  1  0  0  0
 18 23  1  0  0  0
 18 42  1  0  0  0
 18 43  1  0  0  0
 18 44  1  0  0  0
 19 25  1  0  0  0
 19 45  1  0  0  0
 19 46  1  0  0  0
 19 47  1  0  0  0
 20 21  1  0  0  0
 20 48  1  0  0  0
 20 49  1  0  0  0
 21 22  1  0  0  0
 21 50  1  0  0  0
 21 51  1  0  0  0
 23 52  1  0  0  0
M  CHG  1  23   1
M  END
> <s_m_entry_id>
515

> <s_m_entry_name>
TDZNS1assR.1

> <s_m_Source_Path>
/home/emilio/Dropbox/SAMPL9-eglab/mCD/ligsdfs

> <s_m_Source_File>
TDZNS1assR.sdf

> <i_m_Source_File_Index>
1

> <i_lp_mmshare_version>
47013

> <s_epik_input>
W2NIXTFbY0hdW2NIXVtjSF1jKGMxMilTYzNjKFtjSF1jKFtjSF1bY0hdMylTW0NIM10pTjJbQ0gyXVtDSDJdW0NAQEhdNFtDSDJdW0NIMl1bQ0gyXVtDSDJdTjRbQ0gzXQ==

> <s_epik_cmdline>
J2VwaWtfcHl0aG9uJywgJy1waHQnLCAnNC4wJywgJy1waCcsICc3LjQnLCAnLXRuJywgJzgnLCAnLW1hJywgJzIwMCcsICctaW1hZScsICc8aW5maWxlLm1hZT4nLCAnLW9tYWUnLCAnPG91dGZpbGUubWFlPic=

> <r_epik_Ionization_Penalty>
  0.0017

> <r_epik_Ionization_Penalty_Charging>
  0.0017

> <r_epik_Ionization_Penalty_Neutral>
  0.0000

> <r_epik_State_Penalty>
  0.0011

> <r_epik_Charging_Adjusted_Penalty>
0.00279136850725907

> <i_epik_Tot_Q>
1

> <i_epik_Tot_abs_Q>
1

> <s_lp_Force_Field>
OPLS3e

> <r_lp_Energy>
57.252618

> <b_lp_Chiralities_Consistent>
1

> <s_lp_Variant>
TDZ-NS-1

> <s_m_job_name>
ligprep_4

> <chiral flag>
1

> <version>
0

> <i_f3d_flags>
0

> <s_m_subgroup_title>
bCDq->ssR d_copy1

> <s_m_subgroupid>
bCDq_copy1->imported_structures_copy1

> <b_m_subgroup_collapsed>
0

$$$$
