@<TRIPOS>MOLECULE
LIG
41 43
SMALL
USER_CHARGES
@<TRIPOS>ATOM
      1 C1         26.4877  111.8481   44.8390 AA             0 LIG     -0.148984
      2 C2         25.4144  112.2518   45.6621 AB             0 LIG     -0.148984
      3 C3         27.6475  112.6430   44.7508 AD             0 LIG     -0.216162
      4 C4         25.5000  113.4543   46.3901 AE             0 LIG     -0.191448
      5 C5         29.0872  116.5908   48.5981 AF             0 LIG     -0.191448
      6 C6         30.4787  116.7119   48.7641 AH             0 LIG     -0.201273
      7 C7         30.8335  115.5544   46.6386 AI             0 LIG     -0.282378
      8 C8         27.7424  113.8498   45.4726 AJ             0 LIG     0.090825
      9 C9         29.4436  115.3888   46.4894 AK             0 LIG     0.090825
     10 C10        26.6673  114.2356   46.3135 AN             0 LIG     0.113170
     11 C11        28.5726  115.9168   47.4767 AO             0 LIG     0.113170
     12 C12        31.3486  116.1961   47.7827 AP             0 LIG     0.139586
     13 C13        28.9933  119.5225   44.2982 AQ             0 LIG     -0.327670
     14 C14        29.9591  117.5737   45.4445 AV             0 LIG     -0.327670
     15 C15        28.2555  115.9006   43.5894 AW             0 LIG     -0.018552
     16 C16        29.4248  115.0440   44.1484 AX             0 LIG     0.030051
     17 C17        27.9018  117.2453   44.1827 AY             0 LIG     0.155353
     18 N1         28.9307  114.6028   45.4427 AZ             0 LIG     -0.186524
     19 N2         29.1623  118.0450   44.3081 BB             0 LIG     0.134459
     20 S1         26.8304  115.6661   47.3318 BC             0 LIG     -0.184949
     21 CL1        33.0568  116.3342   47.9937 BD             0 LIG     -0.163674
     22 H1         26.4226  110.9173   44.2918 BF             0 LIG     0.167367
     23 H2         24.5314  111.6340   45.7506 BG             0 LIG     0.167367
     24 H3         28.4749  112.3126   44.1407 BH             0 LIG     0.144463
     25 H4         24.6891  113.7614   47.0345 BJ             0 LIG     0.182657
     26 H5         28.4070  116.9812   49.3413 BK             0 LIG     0.182657
     27 H6         30.8740  117.2042   49.6416 BL             0 LIG     0.185066
     28 H7         31.5160  115.1615   45.8985 BM             0 LIG     0.159917
     29 H8         28.2811  119.8418   45.0598 BN             0 LIG     0.163775
     30 H9         28.6470  119.9247   43.3441 BO             0 LIG     0.163775
     31 H10        29.9344  120.0429   44.4779 BP             0 LIG     0.163775
     32 H11        29.3959  117.7556   46.3575 BQ             0 LIG     0.163775
     33 H12        30.9217  118.0827   45.4971 BS             0 LIG     0.163775
     34 H13        30.1349  116.5044   45.3501 BT             0 LIG     0.163775
     35 H14        28.4136  116.1044   42.5179 BU             0 LIG     0.042423
     36 H15        27.3589  115.2892   43.6770 BV             0 LIG     0.042423
     37 H16        29.5083  114.1864   43.4819 BW             0 LIG     0.092460
     38 H17        30.3781  115.5693   44.1801 BX             0 LIG     0.092460
     39 H18        27.1599  117.7579   43.5643 BY             0 LIG     0.021392
     40 H19        27.4542  117.0758   45.1704 BZ             0 LIG     0.021392
     41 H20        29.7031  117.8380   43.4785 CB             0 LIG     0.237587
@<TRIPOS>BOND
        1  1  2  2
        2  1  3  1
        3  1  22  1
        4  2  4  1
        5  2  23  1
        6  3  8  2
        7  3  24  1
        8  4  10  2
        9  4  25  1
        10  5  6  1
        11  5  11  2
        12  5  26  1
        13  6  12  2
        14  6  27  1
        15  7  9  2
        16  7  12  1
        17  7  28  1
        18  8  10  1
        19  8  18  1
        20  9  11  1
        21  9  18  1
        22  10  20  1
        23  11  20  1
        24  12  21  1
        25  13  19  1
        26  13  29  1
        27  13  30  1
        28  13  31  1
        29  14  19  1
        30  14  32  1
        31  14  33  1
        32  14  34  1
        33  15  16  1
        34  15  17  1
        35  15  35  1
        36  15  36  1
        37  16  18  1
        38  16  37  1
        39  16  38  1
        40  17  19  1
        41  17  39  1
        42  17  40  1
        43  19  41  1
@<TRIPOS>SUBSTRUCTURE
       1 LIG             1 RESIDUE    0 **** ROOT      0

