@<TRIPOS>MOLECULE
LIG
41 43
SMALL
USER_CHARGES
@<TRIPOS>ATOM
      1 C1         26.3721  112.0063   44.6279 AA             0 LIG     -0.150100
      2 C2         31.3485  116.1967   47.7835 AB             0 LIG     -0.150100
      3 C3         25.3410  112.3588   45.5195 AD             0 LIG     -0.150100
      4 C4         30.4726  116.7536   48.7361 AE             0 LIG     -0.150100
      5 C5         27.5438  112.7844   44.5580 AF             0 LIG     -0.220762
      6 C6         30.8385  115.5094   46.6654 AH             0 LIG     -0.220762
      7 C7         25.4710  113.4960   46.3353 AI             0 LIG     -0.190531
      8 C8         29.0829  116.6240   48.5746 AJ             0 LIG     -0.190531
      9 C9         27.7058  113.9115   45.3974 AK             0 LIG     0.084657
     10 C10        29.4442  115.3709   46.4970 AN             0 LIG     0.084657
     11 C11        26.6443  114.2742   46.2659 AO             0 LIG     0.115853
     12 C12        28.5695  115.9212   47.4677 AP             0 LIG     0.115853
     13 C13        29.3742  116.1541   41.6444 AQ             0 LIG     -0.353988
     14 C14        27.1907  117.9650   43.6521 AV             0 LIG     -0.185375
     15 C15        29.5473  118.3947   43.2307 AW             0 LIG     -0.185375
     16 C16        29.4149  115.0370   44.0835 AX             0 LIG     0.002465
     17 C17        28.6925  116.0074   43.0389 AY             1 LIG     0.085935
     18 N1         28.9350  114.5999   45.4370 AZ             0 LIG     -0.190232
     19 N2         28.5521  117.3712   43.6611 BB             0 LIG     0.109280
     20 S1         26.8264  115.6688   47.3365 BC             0 LIG     -0.188456
     21 H1         26.2883  111.1065   44.0318 BD             0 LIG     0.166423
     22 H2         32.4175  116.2785   47.9251 BF             0 LIG     0.166423
     23 H3         24.4689  111.7315   45.6026 BG             0 LIG     0.166423
     24 H4         30.8693  117.2633   49.6021 BH             0 LIG     0.166423
     25 H5         28.3506  112.4724   43.9125 BJ             0 LIG     0.128375
     26 H6         31.5142  115.0497   45.9600 BK             0 LIG     0.128375
     27 H7         24.7024  113.7384   47.0544 BL             0 LIG     0.178440
     28 H8         28.4105  117.0349   49.3131 BM             0 LIG     0.178440
     29 H9         29.5568  115.2653   41.0526 BN             0 LIG     0.122803
     30 H10        30.3921  116.5490   41.7197 BO             0 LIG     0.122803
     31 H11        28.7776  116.7790   40.9658 BP             0 LIG     0.122803
     32 H12        26.8245  118.1254   42.6324 BQ             0 LIG     0.123915
     33 H13        27.1926  118.9469   44.1340 BS             0 LIG     0.123915
     34 H14        26.4570  117.3654   44.1936 BT             0 LIG     0.123915
     35 H15        29.4881  118.6032   42.1585 BU             0 LIG     0.123915
     36 H16        30.5663  118.0805   43.4593 BV             0 LIG     0.123915
     37 H17        29.3854  119.3692   43.6900 BW             0 LIG     0.123915
     38 H18        29.4695  114.0692   43.5530 BX             0 LIG     0.090289
     39 H19        30.4346  115.4208   44.2286 BY             0 LIG     0.090289
     40 H20        27.6871  115.6493   42.8655 BZ             0 LIG     0.141962
     41 H21        28.7524  117.2241   44.6499 CB             0 LIG     0.213953
@<TRIPOS>BOND
        1  1  3  2
        2  1  5  1
        3  1  21  1
        4  2  4  2
        5  2  6  1
        6  2  22  1
        7  3  7  1
        8  3  23  1
        9  4  8  1
        10  4  24  1
        11  5  9  2
        12  5  25  1
        13  6  10  2
        14  6  26  1
        15  7  11  2
        16  7  27  1
        17  8  12  2
        18  8  28  1
        19  9  11  1
        20  9  18  1
        21  10  12  1
        22  10  18  1
        23  11  20  1
        24  12  20  1
        25  13  17  1
        26  13  29  1
        27  13  30  1
        28  13  31  1
        29  14  19  1
        30  14  32  1
        31  14  33  1
        32  14  34  1
        33  15  19  1
        34  15  35  1
        35  15  36  1
        36  15  37  1
        37  16  17  1
        38  16  18  1
        39  16  38  1
        40  16  39  1
        41  17  19  1
        42  17  40  1
        43  19  41  1
@<TRIPOS>SUBSTRUCTURE
       1 LIG             1 RESIDUE    0 **** ROOT      0

