PMZ1appR
                    3D
 Structure written by MMmdl.
 41 43  0  0  1  0            999 V2000
   26.6028  111.9735   44.7499 C   0  0  0  0  0  0
   31.3438  116.1990   47.7877 C   0  0  0  0  0  0
   25.5341  112.2949   45.5863 C   0  0  0  0  0  0
   30.4981  116.9006   48.6273 C   0  0  0  0  0  0
   27.7262  112.7255   44.7673 C   0  0  0  0  0  0
   30.8512  115.3995   46.7666 C   0  0  0  0  0  0
   25.6662  113.3885   46.4784 C   0  0  0  0  0  0
   29.1179  116.7475   48.3981 C   0  0  0  0  0  0
   27.8398  113.8534   45.5465 C   0  0  0  0  0  0
   29.4668  115.2185   46.5605 C   0  0  0  0  0  0
   26.7986  114.2350   46.4116 C   0  0  0  0  0  0
   28.6081  115.9403   47.4572 C   0  0  0  0  0  0
   28.7948  119.5445   44.0151 C   0  0  0  0  0  0
   30.1839  118.1579   45.4099 C   0  0  0  0  0  0
   28.5727  115.9816   43.3356 C   0  0  0  0  0  0
   29.5125  115.0382   44.1132 C   0  0  0  0  0  0
   28.3418  117.2651   44.0914 C   0  0  0  0  0  0
   28.9795  114.5707   45.3869 N   0  0  0  0  0  0
   29.4597  118.1898   44.0822 N   0  3  0  0  0  0
   26.7865  115.6953   47.3825 S   0  0  0  0  0  0
   26.5373  111.1498   44.0253 H   0  0  0  0  0  0
   32.3551  116.3138   47.8865 H   0  0  0  0  0  0
   24.6241  111.7332   45.5057 H   0  0  0  0  0  0
   30.9259  117.4152   49.4293 H   0  0  0  0  0  0
   28.4348  112.5311   43.9510 H   0  0  0  0  0  0
   31.5382  114.8540   46.0921 H   0  0  0  0  0  0
   24.8452  113.6360   47.1059 H   0  0  0  0  0  0
   28.3976  117.1621   49.0696 H   0  0  0  0  0  0
   28.1983  119.6108   44.9583 H   0  0  0  0  0  0
   28.1858  119.6665   43.1461 H   0  0  0  0  0  0
   29.5912  120.3597   43.9946 H   0  0  0  0  0  0
   29.4449  117.9974   46.2028 H   0  0  0  0  0  0
   30.7469  119.0868   45.6046 H   0  0  0  0  0  0
   31.0131  117.3320   45.3541 H   0  0  0  0  0  0
   28.9055  116.1699   42.3586 H   0  0  0  0  0  0
   27.6272  115.4669   43.1832 H   0  0  0  0  0  0
   29.5904  114.1836   43.5146 H   0  0  0  0  0  0
   30.5369  115.3399   44.1882 H   0  0  0  0  0  0
   27.5589  117.7274   43.4858 H   0  0  0  0  0  0
   27.9973  117.0633   45.0943 H   0  0  0  0  0  0
   30.0568  118.3256   43.2356 H   0  0  0  0  0  0
  1  3  2  0  0  0
  1  5  1  0  0  0
  1 21  1  0  0  0
  2  4  2  0  0  0
  2  6  1  0  0  0
  2 22  1  0  0  0
  3  7  1  0  0  0
  3 23  1  0  0  0
  4  8  1  0  0  0
  4 24  1  0  0  0
  5  9  2  0  0  0
  5 25  1  0  0  0
  6 10  2  0  0  0
  6 26  1  0  0  0
  7 11  2  0  0  0
  7 27  1  0  0  0
  8 12  2  0  0  0
  8 28  1  0  0  0
  9 11  1  0  0  0
  9 18  1  0  0  0
 10 12  1  0  0  0
 10 18  1  0  0  0
 11 20  1  0  0  0
 12 20  1  0  0  0
 13 19  1  0  0  0
 13 29  1  0  0  0
 13 30  1  0  0  0
 13 31  1  0  0  0
 14 19  1  0  0  0
 14 32  1  0  0  0
 14 33  1  0  0  0
 14 34  1  0  0  0
 15 16  1  0  0  0
 15 17  1  0  0  0
 15 35  1  0  0  0
 15 36  1  0  0  0
 16 18  1  0  0  0
 16 37  1  0  0  0
 16 38  1  0  0  0
 17 19  1  0  0  0
 17 39  1  0  0  0
 17 40  1  0  0  0
 19 41  1  0  0  0
M  CHG  1  19   1
M  END
> <i_m_stars>
0

> <s_m_entry_id>
563

> <s_m_entry_name>
PMZ1appR-q.1

> <s_m_Source_Path>
/u1/users/egallicchio/Dropbox/sims/SAMPL9/work/FFEngine/postc/bCDppRf/ligands

> <s_m_Source_File>
PMZ1appR-q.sdf

> <i_m_Source_File_Index>
1

> <r_epik_Ionization_Penalty>
  0.0034

> <r_epik_State_Penalty>
  0.0024

> <i_epik_Tot_Q>
1

> <s_m_job_name>
ligprep_4

> <chiral flag>
1

> <version>
0

> <i_f3d_flags>
0

> <s_m_subgroup_title>
bCDq->ppR_copy1

> <s_m_subgroupid>
bCDq_copy1->ppR_copy1_copy1

> <b_m_subgroup_collapsed>
0

$$$$
