@<TRIPOS>MOLECULE
LIG
41 43
SMALL
USER_CHARGES
@<TRIPOS>ATOM
      1 C1         26.6028  111.9735   44.7499 PA             0 LIG     -0.151978
      2 C2         31.3438  116.1990   47.7877 PB             0 LIG     -0.151978
      3 C3         25.5341  112.2949   45.5863 PD             0 LIG     -0.151978
      4 C4         30.4981  116.9006   48.6273 PE             0 LIG     -0.151978
      5 C5         27.7262  112.7255   44.7673 PF             0 LIG     -0.221382
      6 C6         30.8512  115.3995   46.7666 PH             0 LIG     -0.221382
      7 C7         25.6662  113.3885   46.4784 PI             0 LIG     -0.192007
      8 C8         29.1179  116.7475   48.3981 PJ             0 LIG     -0.192007
      9 C9         27.8398  113.8534   45.5465 PK             0 LIG     0.086899
     10 C10        29.4668  115.2185   46.5605 PN             0 LIG     0.086899
     11 C11        26.7986  114.2350   46.4116 PO             0 LIG     0.115779
     12 C12        28.6081  115.9403   47.4572 PP             0 LIG     0.115779
     13 C13        28.7948  119.5445   44.0151 PQ             0 LIG     -0.319173
     14 C14        30.1839  118.1579   45.4099 PV             0 LIG     -0.319173
     15 C15        28.5727  115.9816   43.3356 PW             0 LIG     -0.018118
     16 C16        29.5125  115.0382   44.1132 PX             0 LIG     0.036275
     17 C17        28.3418  117.2651   44.0914 PY             0 LIG     0.012268
     18 N1         28.9795  114.5707   45.3869 PZ             0 LIG     -0.191498
     19 N2         29.4597  118.1898   44.0822 QB             0 LIG     0.153200
     20 S1         26.7865  115.6953   47.3825 QC             0 LIG     -0.201542
     21 H1         26.5373  111.1498   44.0253 QD             0 LIG     0.160898
     22 H2         32.3551  116.3138   47.8865 QF             0 LIG     0.160898
     23 H3         24.6241  111.7332   45.5057 QG             0 LIG     0.160898
     24 H4         30.9259  117.4152   49.4293 QH             0 LIG     0.160898
     25 H5         28.4348  112.5311   43.9510 QJ             0 LIG     0.134456
     26 H6         31.5382  114.8540   46.0921 QK             0 LIG     0.134456
     27 H7         24.8452  113.6360   47.1059 QL             0 LIG     0.174337
     28 H8         28.3976  117.1621   49.0696 QM             0 LIG     0.174337
     29 H9         28.1983  119.6108   44.9583 QN             0 LIG     0.158404
     30 H10        28.1858  119.6665   43.1461 QO             0 LIG     0.158404
     31 H11        29.5912  120.3597   43.9946 QP             0 LIG     0.158404
     32 H12        29.4449  117.9974   46.2028 QQ             0 LIG     0.158404
     33 H13        30.7469  119.0868   45.6046 QS             0 LIG     0.158404
     34 H14        31.0131  117.3320   45.3541 QT             0 LIG     0.158404
     35 H15        28.9055  116.1699   42.3586 QU             0 LIG     0.041463
     36 H16        27.6272  115.4669   43.1832 QV             0 LIG     0.041463
     37 H17        29.5904  114.1836   43.5146 QW             0 LIG     0.085391
     38 H18        30.5369  115.3399   44.1882 QX             0 LIG     0.085391
     39 H19        27.5589  117.7274   43.4858 QY             0 LIG     0.073022
     40 H20        27.9973  117.0633   45.0943 QZ             0 LIG     0.073022
     41 H21        30.0568  118.3256   43.2356 RB             0 LIG     0.265740
@<TRIPOS>BOND
        1  1  3  2
        2  1  5  1
        3  1  21  1
        4  2  4  2
        5  2  6  1
        6  2  22  1
        7  3  7  1
        8  3  23  1
        9  4  8  1
        10  4  24  1
        11  5  9  2
        12  5  25  1
        13  6  10  2
        14  6  26  1
        15  7  11  2
        16  7  27  1
        17  8  12  2
        18  8  28  1
        19  9  11  1
        20  9  18  1
        21  10  12  1
        22  10  18  1
        23  11  20  1
        24  12  20  1
        25  13  19  1
        26  13  29  1
        27  13  30  1
        28  13  31  1
        29  14  19  1
        30  14  32  1
        31  14  33  1
        32  14  34  1
        33  15  16  1
        34  15  17  1
        35  15  35  1
        36  15  36  1
        37  16  18  1
        38  16  37  1
        39  16  38  1
        40  17  19  1
        41  17  39  1
        42  17  40  1
        43  19  41  1
@<TRIPOS>SUBSTRUCTURE
       1 LIG             1 RESIDUE    0 **** ROOT      0

