@<TRIPOS>MOLECULE
LIG
52 55
SMALL
USER_CHARGES
@<TRIPOS>ATOM
      1 C1         26.4367  111.8672   44.7895 AA             0 LIG     -0.151259
      2 C2         25.4052  112.2441   45.6689 AB             0 LIG     -0.151259
      3 C3         27.5846  112.6753   44.6579 AD             0 LIG     -0.219304
      4 C4         25.5186  113.4284   46.4193 AE             0 LIG     -0.194592
      5 C5         29.0867  116.6898   48.5258 AF             0 LIG     -0.194592
      6 C6         30.4744  116.8255   48.6946 AH             0 LIG     -0.194592
      7 C7         30.8447  115.4708   46.6994 AI             0 LIG     -0.277127
      8 C8         27.7249  113.8530   45.4303 AJ             0 LIG     0.085655
      9 C9         29.4550  115.3576   46.4980 AK             0 LIG     0.085655
     10 C10        26.6727  114.2260   46.3073 AN             0 LIG     0.112307
     11 C11        28.5801  115.9412   47.4438 AO             0 LIG     0.112307
     12 C12        31.3550  116.2018   47.7911 AP             0 LIG     0.162844
     13 C13        28.0786  119.7092   43.1367 AQ             0 LIG     -0.032521
     14 C14        28.8787  120.1216   41.8973 AV             0 LIG     -0.034488
     15 C15        27.8160  118.1831   43.1209 AW             0 LIG     -0.055761
     16 C16        30.1650  119.2880   41.8026 AX             0 LIG     -0.006430
     17 C17        29.1127  117.3289   42.9881 AY             1 LIG     0.133288
     18 C18        31.1324  117.0573   41.5235 AZ             0 LIG     -0.176010
     19 C19        33.3526  117.3082   49.5582 BB             0 LIG     -0.159669
     20 C20        28.8210  115.7813   42.9563 BC             0 LIG     -0.036260
     21 C21        29.5498  114.9555   44.1041 BD             0 LIG     0.036576
     22 N1         28.9190  114.5988   45.4367 BF             0 LIG     -0.187743
     23 N2         29.8850  117.8143   41.7955 BG             2 LIG     -0.192054
     24 S1         26.8358  115.6646   47.3290 BH             0 LIG     -0.197945
     25 S2         33.0956  116.3186   48.0562 BJ             0 LIG     -0.259338
     26 H1         26.3664  110.9359   44.2468 BK             0 LIG     0.162335
     27 H2         24.5453  111.6021   45.7993 BL             0 LIG     0.162335
     28 H3         28.3801  112.3372   44.0118 BM             0 LIG     0.137375
     29 H4         24.7449  113.6994   47.1187 BN             0 LIG     0.176356
     30 H5         28.4062  117.1138   49.2470 BO             0 LIG     0.176356
     31 H6         30.8637  117.3558   49.5537 BP             0 LIG     0.176356
     32 H7         31.5204  114.9509   46.0398 BQ             0 LIG     0.141006
     33 H8         28.6287  119.9878   44.0397 BS             0 LIG     0.046484
     34 H9         27.1401  120.2739   43.1746 BT             0 LIG     0.046484
     35 H10        28.2716  119.9887   40.9988 BU             0 LIG     0.051372
     36 H11        29.1208  121.1864   41.9402 BV             0 LIG     0.051372
     37 H12        27.2748  117.9354   44.0337 BW             0 LIG     0.048966
     38 H13        27.1215  117.9737   42.3009 BX             0 LIG     0.048966
     39 H14        30.6988  119.5795   40.8902 BY             0 LIG     0.095743
     40 H15        30.8306  119.5378   42.6348 BZ             0 LIG     0.095743
     41 H16        29.7126  117.5704   43.8749 CB             0 LIG     0.086415
     42 H17        31.8013  117.0845   42.3850 CI             0 LIG     0.129026
     43 H18        31.6627  117.4586   40.6605 CJ             0 LIG     0.129026
     44 H19        30.9457  116.0146   41.2842 CK             0 LIG     0.129026
     45 H20        34.4022  117.5899   49.6474 CM             0 LIG     0.110256
     46 H21        33.0772  116.7363   50.4441 CN             0 LIG     0.110256
     47 H22        32.7557  118.2214   49.5288 CT             0 LIG     0.110256
     48 H23        27.7434  115.6801   43.0263 CW             0 LIG     0.037623
     49 H24        29.0222  115.3859   41.9662 DA             0 LIG     0.037623
     50 H25        29.9356  114.0232   43.6461 DB             0 LIG     0.084613
     51 H26        30.4212  115.5541   44.4144 DC             0 LIG     0.084613
     52 H27        29.2809  117.6778   40.9866 DD             0 LIG     0.326325
@<TRIPOS>BOND
        1  1  2  2
        2  1  3  1
        3  1  26  1
        4  2  4  1
        5  2  27  1
        6  3  8  2
        7  3  28  1
        8  4  10  2
        9  4  29  1
        10  5  6  1
        11  5  11  2
        12  5  30  1
        13  6  12  2
        14  6  31  1
        15  7  9  2
        16  7  12  1
        17  7  32  1
        18  8  10  1
        19  8  22  1
        20  9  11  1
        21  9  22  1
        22  10  24  1
        23  11  24  1
        24  12  25  1
        25  13  14  1
        26  13  15  1
        27  13  33  1
        28  13  34  1
        29  14  16  1
        30  14  35  1
        31  14  36  1
        32  15  17  1
        33  15  37  1
        34  15  38  1
        35  16  23  1
        36  16  39  1
        37  16  40  1
        38  17  20  1
        39  17  23  1
        40  17  41  1
        41  18  23  1
        42  18  42  1
        43  18  43  1
        44  18  44  1
        45  19  25  1
        46  19  45  1
        47  19  46  1
        48  19  47  1
        49  20  21  1
        50  20  48  1
        51  20  49  1
        52  21  22  1
        53  21  50  1
        54  21  51  1
        55  23  52  1
@<TRIPOS>SUBSTRUCTURE
       1 LIG             1 RESIDUE    0 **** ROOT      0

