@<TRIPOS>MOLECULE
LIG
52 55
SMALL
USER_CHARGES
@<TRIPOS>ATOM
      1 C1         26.4057  111.8809   44.7887 AA             0 LIG     -0.151741
      2 C2         25.3794  112.2638   45.6712 AB             0 LIG     -0.151741
      3 C3         27.5646  112.6734   44.6648 AD             0 LIG     -0.220252
      4 C4         25.5093  113.4419   46.4259 AE             0 LIG     -0.194616
      5 C5         29.0822  116.6666   48.5350 AF             0 LIG     -0.194616
      6 C6         30.4704  116.8115   48.7055 AH             0 LIG     -0.194616
      7 C7         30.8498  115.4684   46.7030 AI             0 LIG     -0.276550
      8 C8         27.7199  113.8496   45.4387 AJ             0 LIG     0.084603
      9 C9         29.4560  115.3459   46.4969 AK             0 LIG     0.084603
     10 C10        26.6724  114.2299   46.3151 AN             0 LIG     0.112404
     11 C11        28.5785  115.9269   47.4481 AO             0 LIG     0.112404
     12 C12        31.3547  116.2034   47.7937 AP             0 LIG     0.163041
     13 C13        29.2789  119.2685   42.3807 AQ             0 LIG     -0.029878
     14 C14        30.3710  119.7338   43.3518 AV             0 LIG     -0.034345
     15 C15        28.1480  118.5586   43.1519 AW             0 LIG     -0.054555
     16 C16        30.8714  118.5738   44.2314 AX             0 LIG     0.011138
     17 C17        28.6796  117.3694   43.9938 AY             1 LIG     0.149935
     18 C18        30.1991  116.9064   45.9423 AZ             0 LIG     -0.244054
     19 C19        33.9144  115.0192   47.1403 BB             0 LIG     -0.160589
     20 C20        29.0865  116.0987   43.1543 BC             0 LIG     -0.033239
     21 C21        29.5253  114.9092   44.1043 BD             0 LIG     0.039575
     22 N1         28.9206  114.5947   45.4298 BF             0 LIG     -0.187004
     23 N2         29.7310  117.8837   44.9206 BG             1 LIG     -0.070769
     24 S1         26.8344  115.6673   47.3334 BH             0 LIG     -0.197900
     25 S2         33.0950  116.3586   48.0495 BJ             0 LIG     -0.258446
     26 H1         26.3203  110.9562   44.2335 BK             0 LIG     0.161610
     27 H2         24.5089  111.6365   45.7928 BL             0 LIG     0.161610
     28 H3         28.3511  112.3240   44.0132 BM             0 LIG     0.136076
     29 H4         24.7372  113.7230   47.1257 BN             0 LIG     0.176324
     30 H5         28.3994  117.0867   49.2577 BO             0 LIG     0.176324
     31 H6         30.8565  117.3460   49.5619 BP             0 LIG     0.176324
     32 H7         31.5293  114.9560   46.0459 BQ             0 LIG     0.140791
     33 H8         28.8893  120.1248   41.8230 BS             0 LIG     0.046381
     34 H9         29.7043  118.6030   41.6320 BT             0 LIG     0.046381
     35 H10        31.2096  120.1609   42.7928 BU             0 LIG     0.049941
     36 H11        29.9893  120.5450   43.9746 BV             0 LIG     0.049941
     37 H12        27.6776  119.3048   43.8012 BW             0 LIG     0.046927
     38 H13        27.3652  118.2453   42.4642 BX             0 LIG     0.046927
     39 H14        31.4270  117.8574   43.6332 BY             0 LIG     0.081886
     40 H15        31.5664  118.9724   44.9730 BZ             0 LIG     0.081886
     41 H16        27.8487  117.0896   44.6447 CB             0 LIG     0.038290
     42 H17        30.7886  116.1058   45.5093 CI             0 LIG     0.142123
     43 H18        29.3513  116.4591   46.4628 CJ             0 LIG     0.142123
     44 H19        30.8352  117.3838   46.6861 CK             0 LIG     0.142123
     45 H20        34.9690  114.9806   47.4130 CM             0 LIG     0.110774
     46 H21        33.8460  115.1867   46.0663 CN             0 LIG     0.110774
     47 H22        33.4645  114.0547   47.3786 CT             0 LIG     0.110774
     48 H23        28.2488  115.8302   42.5239 CW             0 LIG     0.042019
     49 H24        29.8730  116.3282   42.4500 DA             0 LIG     0.042019
     50 H25        29.5506  113.9749   43.5080 DB             0 LIG     0.082888
     51 H26        30.5625  115.1411   44.4211 DC             0 LIG     0.082888
     52 H27        29.2946  118.6175   45.4607 DD             0 LIG     0.271082
@<TRIPOS>BOND
        1  1  2  2
        2  1  3  1
        3  1  26  1
        4  2  4  1
        5  2  27  1
        6  3  8  2
        7  3  28  1
        8  4  10  2
        9  4  29  1
        10  5  6  1
        11  5  11  2
        12  5  30  1
        13  6  12  2
        14  6  31  1
        15  7  9  2
        16  7  12  1
        17  7  32  1
        18  8  10  1
        19  8  22  1
        20  9  11  1
        21  9  22  1
        22  10  24  1
        23  11  24  1
        24  12  25  1
        25  13  14  1
        26  13  15  1
        27  13  33  1
        28  13  34  1
        29  14  16  1
        30  14  35  1
        31  14  36  1
        32  15  17  1
        33  15  37  1
        34  15  38  1
        35  16  23  1
        36  16  39  1
        37  16  40  1
        38  17  20  1
        39  17  23  1
        40  17  41  1
        41  18  23  1
        42  18  42  1
        43  18  43  1
        44  18  44  1
        45  19  25  1
        46  19  45  1
        47  19  46  1
        48  19  47  1
        49  20  21  1
        50  20  48  1
        51  20  49  1
        52  21  22  1
        53  21  50  1
        54  21  51  1
        55  23  52  1
@<TRIPOS>SUBSTRUCTURE
       1 LIG             1 RESIDUE    0 **** ROOT      0

