@<TRIPOS>MOLECULE
LIG
50 53
SMALL
USER_CHARGES
@<TRIPOS>ATOM
      1 C1         26.5397  111.6887   45.2120 AA             0 LIG     -0.146946
      2 C2         25.5999  112.0518   46.1686 AB             0 LIG     -0.146946
      3 C3         27.6168  112.5305   44.9388 AD             0 LIG     -0.213882
      4 C4         25.7299  113.2653   46.8343 AE             0 LIG     -0.189563
      5 C5         29.0923  116.4284   48.6527 AF             0 LIG     -0.189563
      6 C6         30.4598  116.6306   48.7973 AH             0 LIG     -0.186283
      7 C7         30.8229  115.5598   46.6712 AI             0 LIG     -0.267664
      8 C8         27.7914  113.7583   45.6107 AJ             0 LIG     0.094519
      9 C9         29.4441  115.3157   46.5042 AK             0 LIG     0.094519
     10 C10        26.8019  114.1163   46.5543 AN             0 LIG     0.116195
     11 C11        28.5859  115.7931   47.5186 AO             0 LIG     0.116195
     12 C12        31.3382  116.2061   47.7996 AP             0 LIG     -0.069395
     13 C13        26.7694  118.4512   44.1657 AQ             0 LIG     -0.041121
     14 C14        28.5110  118.7099   42.4788 AV             0 LIG     -0.041121
     15 C15        27.0756  119.8653   44.6869 AW             0 LIG     0.063286
     16 C16        28.7970  120.1242   43.0094 AX             0 LIG     0.063286
     17 C17        28.9519  115.5606   42.7682 AY             0 LIG     -0.016690
     18 C18        29.5823  114.9255   44.0890 AZ             0 LIG     0.028631
     19 C19        27.6960  116.4302   43.0743 BB             0 LIG     -0.059139
     20 N1         28.9279  114.5813   45.4082 BC             0 LIG     -0.187888
     21 N2         27.9603  117.8236   43.5341 BD             0 LIG     -0.035261
     22 N3         27.6144  120.7183   43.6297 BF             0 LIG     -0.795699
     23 F1         33.2733  117.1536   46.8836 BG             0 LIG     -0.251326
     24 F2         33.4728  115.2544   47.9062 BH             0 LIG     -0.251326
     25 F3         33.1812  117.0705   49.0413 BJ             0 LIG     -0.251326
     26 S1         26.8439  115.6780   47.3490 BK             0 LIG     -0.162784
     27 C20        32.8448  116.4308   47.9192 BL             0 LIG     0.697269
     28 H1         26.4388  110.7515   44.6850 BM             0 LIG     0.171877
     29 H2         24.7653  111.4009   46.3846 BN             0 LIG     0.171877
     30 H3         28.3157  112.1863   44.1934 BO             0 LIG     0.150837
     31 H4         24.9807  113.5535   47.5577 BP             0 LIG     0.186066
     32 H5         28.4218  116.7879   49.4200 BQ             0 LIG     0.186066
     33 H6         30.8249  117.1315   49.6820 BS             0 LIG     0.189607
     34 H7         31.5375  115.2518   45.9274 BT             0 LIG     0.149674
     35 H8         26.4358  117.8475   44.9999 BU             0 LIG     0.093433
     36 H9         25.9452  118.4716   43.4560 BV             0 LIG     0.093433
     37 H10        27.8295  118.7438   41.6329 BW             0 LIG     0.093433
     38 H11        29.4401  118.3109   42.1039 BX             0 LIG     0.093433
     39 H12        26.1896  120.3488   45.1091 BY             0 LIG     0.105981
     40 H13        27.8059  119.8184   45.5016 BZ             0 LIG     0.105981
     41 H14        29.5995  120.0935   43.7538 CB             0 LIG     0.105981
     42 H15        29.1527  120.7938   42.2192 CI             0 LIG     0.105981
     43 H16        29.6479  116.2331   42.2776 CJ             0 LIG     0.044237
     44 H17        28.7386  114.9295   41.9112 CK             0 LIG     0.044237
     45 H18        30.2902  114.1411   43.7720 CM             0 LIG     0.093748
     46 H19        30.1537  115.7363   44.5611 CN             0 LIG     0.093748
     47 H20        27.0288  116.4898   42.2125 CT             0 LIG     0.094892
     48 H21        27.1236  115.9271   43.8407 CW             0 LIG     0.094892
     49 H22        26.9249  121.0800   42.9762 DA             0 LIG     0.419755
     50 H23        28.6560  117.7862   44.2668 DB             0 LIG     0.340852
@<TRIPOS>BOND
        1  1  2  2
        2  1  3  1
        3  1  28  1
        4  2  4  1
        5  2  29  1
        6  3  8  2
        7  3  30  1
        8  4  10  2
        9  4  31  1
        10  5  6  1
        11  5  11  2
        12  5  32  1
        13  6  12  2
        14  6  33  1
        15  7  9  2
        16  7  12  1
        17  7  34  1
        18  8  10  1
        19  8  20  1
        20  9  11  1
        21  9  20  1
        22  10  26  1
        23  11  26  1
        24  12  27  1
        25  13  15  1
        26  13  21  1
        27  13  35  1
        28  13  36  1
        29  14  16  1
        30  14  21  1
        31  14  37  1
        32  14  38  1
        33  15  22  1
        34  15  39  1
        35  15  40  1
        36  16  22  1
        37  16  41  1
        38  16  42  1
        39  17  18  1
        40  17  19  1
        41  17  43  1
        42  17  44  1
        43  18  20  1
        44  18  45  1
        45  18  46  1
        46  19  21  1
        47  19  47  1
        48  19  48  1
        49  21  50  1
        50  22  49  1
        51  23  27  1
        52  24  27  1
        53  25  27  1
@<TRIPOS>SUBSTRUCTURE
       1 LIG             1 RESIDUE    0 **** ROOT      0

