@<TRIPOS>MOLECULE
LIG
50 53
SMALL
USER_CHARGES
@<TRIPOS>ATOM
      1 C1         26.1115  112.3179   44.3895 AA             0 LIG     -0.148793
      2 C2         25.1368  112.6686   45.3155 AB             0 LIG     -0.148793
      3 C3         27.3467  112.9635   44.3981 AD             0 LIG     -0.214109
      4 C4         25.3939  113.6795   46.2346 AE             0 LIG     -0.192215
      5 C5         29.0924  116.4399   48.6482 AF             0 LIG     -0.192215
      6 C6         30.4605  116.6381   48.7937 AH             0 LIG     -0.190417
      7 C7         30.8231  115.5579   46.6732 AI             0 LIG     -0.264320
      8 C8         27.6484  113.9783   45.3299 AJ             0 LIG     0.095370
      9 C9         29.4425  115.3207   46.5038 AK             0 LIG     0.095370
     10 C10        26.6263  114.3375   46.2374 AN             0 LIG     0.116137
     11 C11        28.5844  115.8011   47.5159 AO             0 LIG     0.116137
     12 C12        31.3394  116.2062   47.7997 AP             0 LIG     -0.071581
     13 C13        28.6174  119.1208   44.8758 AQ             0 LIG     0.037365
     14 C14        30.6808  118.2242   43.9979 AV             0 LIG     0.037365
     15 C15        29.3768  119.7489   46.0654 AW             0 LIG     0.086222
     16 C16        31.4726  118.8690   45.1757 AX             0 LIG     0.086222
     17 C17        28.9829  115.9261   42.9906 AY             0 LIG     0.011333
     18 C18        29.5435  114.9359   44.0888 AZ             0 LIG     0.026484
     19 C19        28.4351  117.2963   43.4184 BB             0 LIG     0.037611
     20 N1         28.9273  114.5818   45.4089 BC             0 LIG     -0.178062
     21 N2         29.3072  117.9081   44.4429 BD             0 LIG     -0.528710
     22 N3         30.7652  120.0545   45.6889 BF             0 LIG     -0.527743
     23 F1         33.4788  115.2462   47.7750 BG             0 LIG     -0.255693
     24 F2         33.1976  116.9217   49.1088 BH             0 LIG     -0.255693
     25 F3         33.2622  117.2459   46.9718 BJ             0 LIG     -0.255693
     26 S1         26.8433  115.6772   47.3485 BK             0 LIG     -0.174420
     27 C20        32.8482  116.4119   47.9260 BL             0 LIG     0.695255
     28 H1         25.9135  111.5409   43.6660 BM             0 LIG     0.167075
     29 H2         24.1797  112.1683   45.3124 BN             0 LIG     0.167075
     30 H3         28.0582  112.6418   43.6573 BO             0 LIG     0.157041
     31 H4         24.6223  113.9654   46.9352 BP             0 LIG     0.180382
     32 H5         28.4225  116.8019   49.4148 BQ             0 LIG     0.180382
     33 H6         30.8263  117.1394   49.6780 BS             0 LIG     0.183084
     34 H7         31.5387  115.2320   45.9354 BT             0 LIG     0.171935
     35 H8         27.5950  118.8679   45.1970 BU             0 LIG     0.086347
     36 H9         28.5531  119.8210   44.0425 BV             0 LIG     0.086347
     37 H10        30.6580  118.9103   43.1512 BW             0 LIG     0.086347
     38 H11        31.2207  117.3176   43.6815 BX             0 LIG     0.086347
     39 H12        28.8614  120.6640   46.3801 BY             0 LIG     0.119217
     40 H13        29.3645  119.0597   46.9183 BZ             0 LIG     0.119217
     41 H14        31.6105  118.1369   45.9833 CB             0 LIG     0.119217
     42 H15        32.4810  119.1567   44.8433 CI             0 LIG     0.119217
     43 H16        29.6636  115.9786   42.1347 CJ             0 LIG     0.035265
     44 H17        27.9768  115.6107   42.7221 CK             0 LIG     0.035265
     45 H18        29.9954  114.0800   43.6067 CM             0 LIG     0.085093
     46 H19        30.4096  115.4636   44.4399 CN             0 LIG     0.085093
     47 H20        28.3778  117.9708   42.5521 CT             0 LIG     0.068063
     48 H21        27.4202  117.1732   43.7894 CW             0 LIG     0.068063
     49 H22        30.7624  120.7553   44.9788 DA             0 LIG     0.375757
     50 H23        31.2593  120.4275   46.4832 DB             0 LIG     0.375757
@<TRIPOS>BOND
        1  1  2  2
        2  1  3  1
        3  1  28  1
        4  2  4  1
        5  2  29  1
        6  3  8  2
        7  3  30  1
        8  4  10  2
        9  4  31  1
        10  5  6  1
        11  5  11  2
        12  5  32  1
        13  6  12  2
        14  6  33  1
        15  7  9  2
        16  7  12  1
        17  7  34  1
        18  8  10  1
        19  8  20  1
        20  9  11  1
        21  9  20  1
        22  10  26  1
        23  11  26  1
        24  12  27  1
        25  13  15  1
        26  13  21  1
        27  13  35  1
        28  13  36  1
        29  14  16  1
        30  14  21  1
        31  14  37  1
        32  14  38  1
        33  15  22  1
        34  15  39  1
        35  15  40  1
        36  16  22  1
        37  16  41  1
        38  16  42  1
        39  17  18  1
        40  17  19  1
        41  17  43  1
        42  17  44  1
        43  18  20  1
        44  18  45  1
        45  18  46  1
        46  19  21  1
        47  19  47  1
        48  19  48  1
        49  22  49  1
        50  22  50  1
        51  23  27  1
        52  24  27  1
        53  25  27  1
@<TRIPOS>SUBSTRUCTURE
       1 LIG             1 RESIDUE    0 **** ROOT      0

