@<TRIPOS>MOLECULE
LIG
147 154
SMALL
USER_CHARGES
@<TRIPOS>ATOM
      1 C1         24.4701  110.2603   50.3992 aa             2 LIG     0.429587
      2 C2         22.9587  110.1556   49.9945 ab             1 LIG     0.201964
      3 C3         22.7510  110.7607   48.5463 ad             2 LIG     0.216381
      4 C4         23.4799  112.1201   48.3315 ae             1 LIG     0.192567
      5 C5         24.9237  112.0226   48.7855 af             1 LIG     0.192567
      6 C6         25.6139  113.4005   48.7793 ah             0 LIG     0.180165
      7 C7         28.3491  106.5402   50.0371 ai             2 LIG     0.429587
      8 C8         26.9751  106.2147   50.6369 aj             1 LIG     0.201964
      9 C9         25.8407  107.1232   50.0726 ak             2 LIG     0.216381
     10 C10        26.2379  108.5831   50.1943 an             1 LIG     0.192567
     11 C11        27.6355  108.8461   49.4692 ao             1 LIG     0.192567
     12 C12        28.1371  110.3435   49.5440 ap             0 LIG     0.180165
     13 C13        30.3235  103.5884   46.1189 aq             2 LIG     0.429587
     14 C14        29.0026  102.9930   46.8805 av             1 LIG     0.201964
     15 C15        28.1649  104.2064   47.5011 aw             2 LIG     0.216381
     16 C16        29.0368  105.0702   48.3225 ax             1 LIG     0.192567
     17 C17        30.2598  105.6007   47.5909 ay             1 LIG     0.192567
     18 C18        31.1740  106.2744   48.5954 az             0 LIG     0.180165
     19 C19        30.3137  105.1683   41.0485 bb             2 LIG     0.429587
     20 C20        29.4989  103.8391   41.3289 bc             1 LIG     0.201964
     21 C21        29.1853  103.9052   42.8598 bd             2 LIG     0.216381
     22 C22        30.4087  104.1181   43.7621 bf             1 LIG     0.192567
     23 C23        31.2920  105.3141   43.3566 bg             1 LIG     0.192567
     24 C24        32.7373  105.3724   44.0541 bh             0 LIG     0.180165
     25 C25        28.6151  110.0983   39.7112 bj             2 LIG     0.429587
     26 C26        28.1166  108.7508   38.8893 bk             1 LIG     0.201964
     27 C27        28.0830  107.5715   39.9209 bl             2 LIG     0.216381
     28 C28        29.4867  107.4331   40.4716 bm             1 LIG     0.192567
     29 C29        30.0600  108.7134   41.1653 bn             1 LIG     0.192567
     30 C30        31.5593  108.6118   41.5691 bo             0 LIG     0.180165
     31 C31        25.0544  113.5490   41.9194 bp             2 LIG     0.429587
     32 C32        24.8258  112.9267   40.5429 bq             1 LIG     0.201964
     33 C33        25.6088  111.6514   40.3786 bs             2 LIG     0.216381
     34 C34        27.0616  111.7276   40.8890 bt             1 LIG     0.192567
     35 C35        27.0735  112.3501   42.2729 bu             1 LIG     0.192567
     36 C36        28.4911  112.4493   42.8644 bv             0 LIG     0.180165
     37 C37        22.5012  113.4019   46.4536 bw             1 LIG     0.429587
     38 C38        21.5616  112.8879   45.3412 bx             1 LIG     0.201964
     39 C39        22.4622  112.3909   44.1218 by             2 LIG     0.216381
     40 C40        23.5272  113.4383   43.7411 bz             1 LIG     0.192567
     41 C41        24.2647  114.0042   44.9973 cb             1 LIG     0.192567
     42 C42        25.1798  115.2719   44.7364 ci             0 LIG     0.180165
     43 O1         22.4240  108.8078   50.1890 cj             0 LIG     -0.741075
     44 O2         21.3631  110.7687   48.1486 ck             0 LIG     -0.741075
     45 O3         23.4269  112.3307   46.8815 cm             0 LIG     -0.544165
     46 O4         24.9703  111.5074   50.1070 cn             0 LIG     -0.544165
     47 O5         25.3419  114.1241   49.9929 ct             0 LIG     -0.741075
     48 O6         26.6163  104.8308   50.7225 cw             0 LIG     -0.741075
     49 O7         24.6025  106.8104   50.7384 da             0 LIG     -0.741075
     50 O8         25.2100  109.3430   49.5146 db             0 LIG     -0.544165
     51 O9         28.6474  107.9449   50.0730 dc             0 LIG     -0.544165
     52 O10        29.4633  110.4615   49.0056 dd             0 LIG     -0.741075
     53 O11        28.1083  102.2005   45.9809 de             0 LIG     -0.741075
     54 O12        27.0282  103.6935   48.2677 df             0 LIG     -0.741075
     55 O13        28.3185  106.1887   48.6651 dg             0 LIG     -0.544165
     56 O14        30.9530  104.4826   47.0314 dh             0 LIG     -0.544165
     57 O15        32.5262  106.3972   48.0605 di             0 LIG     -0.741075
     58 O16        28.2733  103.8694   40.5443 dj             0 LIG     -0.741075
     59 O17        28.3448  102.7306   43.2085 dk             0 LIG     -0.741075
     60 O18        29.8427  104.4696   45.0428 dl             0 LIG     -0.544165
     61 O19        31.4750  105.2665   41.9252 dm             0 LIG     -0.544165
     62 O20        33.7040  106.0978   43.3410 dn             0 LIG     -0.741075
     63 O21        26.8196  108.9754   38.3204 do             0 LIG     -0.741075
     64 O22        27.8089  106.2721   39.3314 dp             0 LIG     -0.741075
     65 O23        29.4877  106.3463   41.4204 dq             0 LIG     -0.544165
     66 O24        29.9770  109.9213   40.3117 dr             0 LIG     -0.544165
     67 O25        32.3748  108.5066   40.4539 ds             0 LIG     -0.741075
     68 O26        23.4056  112.7640   40.2483 dt             0 LIG     -0.741075
     69 O27        25.5258  111.0332   39.0955 dv             0 LIG     -0.741075
     70 O28        27.7010  110.4061   40.8418 dw             0 LIG     -0.544165
     71 O29        26.4381  113.6198   42.1959 dx             0 LIG     -0.544165
     72 O30        29.1715  113.4446   42.2253 dz             0 LIG     -0.741075
     73 O31        20.6960  111.8040   45.7997 ea             0 LIG     -0.741075
     74 O32        21.6234  112.2429   42.9834 eb             0 LIG     -0.741075
     75 O33        24.4124  112.7309   42.8336 ec             0 LIG     -0.544165
     76 O34        23.2919  114.4074   45.9606 ed             0 LIG     -0.544165
     77 O35        24.4844  116.4549   44.2948 ee             0 LIG     -0.741075
     78 H1         28.0585  110.8116   50.5647 ef             0 LIG     0.065605
     79 H2         27.5079  111.0519   48.9285 eg             0 LIG     0.065605
     80 H3         23.1913  108.2139   50.5651 eh             0 LIG     0.491666
     81 H4         21.2881  111.0240   47.1540 ei             0 LIG     0.491666
     82 H5         25.7085  113.4827   50.6316 ej             0 LIG     0.491666
     83 H6         26.8857  104.5073   49.8801 ek             0 LIG     0.491666
     84 H7         24.4233  105.8777   50.4102 el             0 LIG     0.491666
     85 H8         29.7699  111.3816   48.7884 em             0 LIG     0.491666
     86 H9         28.1014  102.6372   45.1353 en             0 LIG     0.491666
     87 H10        26.4052  103.1703   47.6839 eo             0 LIG     0.491666
     88 H11        32.5159  105.5363   47.6260 eq             0 LIG     0.491666
     89 H12        28.1559  104.7899   40.2555 es             0 LIG     0.491666
     90 H13        28.8681  101.8766   43.0431 et             0 LIG     0.491666
     91 H14        33.7259  105.7289   42.4176 ev             0 LIG     0.491666
     92 H15        26.4349  109.7414   38.8951 ew             0 LIG     0.491666
     93 H16        27.3387  106.4121   38.4713 ex             0 LIG     0.491666
     94 H17        32.0326  109.2739   39.9398 ey             0 LIG     0.491666
     95 H18        23.0800  112.0723   40.8264 ez             0 LIG     0.491666
     96 H19        24.9786  111.6345   38.4934 fa             0 LIG     0.491666
     97 H20        28.8406  114.2988   42.6293 fb             0 LIG     0.491666
     98 H21        19.8518  112.2778   45.9878 fc             0 LIG     0.491666
     99 H22        20.8691  112.9145   43.0122 fd             0 LIG     0.491666
    100 H23        23.7848  116.7204   44.9846 ff             0 LIG     0.491666
    101 H24        24.6352  110.0397   51.4749 fg             0 LIG     0.064779
    102 H25        22.3715  110.8419   50.7454 fh             0 LIG     0.061814
    103 H26        23.3276  110.1681   47.8579 fi             0 LIG     0.054082
    104 H27        23.0511  112.9995   48.8583 fj             0 LIG     0.055721
    105 H28        25.4500  111.4314   48.0777 fk             0 LIG     0.055721
    106 H29        26.7178  113.2297   48.7174 fl             0 LIG     0.065605
    107 H30        25.2889  114.0102   47.8662 fm             0 LIG     0.065605
    108 H31        29.1183  106.0273   50.5743 fn             0 LIG     0.064779
    109 H32        27.0594  106.5371   51.7038 fo             0 LIG     0.061814
    110 H33        25.6767  107.0045   48.9770 fp             0 LIG     0.054082
    111 H34        26.2611  108.8651   51.2505 fq             0 LIG     0.055721
    112 H35        27.4494  108.5612   48.4294 fs             0 LIG     0.055721
    113 H36        30.9434  102.7125   45.8017 ft             0 LIG     0.064779
    114 H37        29.3457  102.3778   47.6335 fu             0 LIG     0.061814
    115 H38        27.7556  104.8616   46.6952 fv             0 LIG     0.054082
    116 H39        29.3858  104.4439   49.1463 fw             0 LIG     0.055721
    117 H40        30.0440  106.4295   46.8782 fx             0 LIG     0.055721
    118 H41        31.2666  105.5713   49.4077 fy             0 LIG     0.065605
    119 H42        30.7281  107.1690   49.0062 fz             0 LIG     0.065605
    120 H43        30.5150  105.2438   39.9211 gb             0 LIG     0.064779
    121 H44        30.1559  102.9986   41.0421 gc             0 LIG     0.061814
    122 H45        28.5741  104.8035   42.9709 gf             0 LIG     0.054082
    123 H46        30.9147  103.1105   43.7758 gg             0 LIG     0.055721
    124 H47        30.8576  106.2900   43.6204 gh             0 LIG     0.055721
    125 H48        32.6137  105.6909   45.1358 gi             0 LIG     0.065605
    126 H49        33.0887  104.3520   44.2019 gj             0 LIG     0.065605
    127 H50        28.7431  110.9584   39.0721 gk             0 LIG     0.064779
    128 H51        28.8231  108.5624   38.1028 gl             0 LIG     0.061814
    129 H52        27.3188  107.8160   40.7429 gm             0 LIG     0.054082
    130 H53        30.1383  107.2945   39.5652 gn             0 LIG     0.055721
    131 H54        29.5359  108.9135   42.1707 go             0 LIG     0.055721
    132 H55        31.8790  109.4586   42.1420 gp             0 LIG     0.065605
    133 H56        31.7477  107.7525   42.2873 gq             0 LIG     0.065605
    134 H57        24.6943  114.5488   41.8123 gr             0 LIG     0.064779
    135 H58        25.2203  113.6514   39.8130 gs             0 LIG     0.061814
    136 H59        25.2042  110.8803   41.0966 gt             0 LIG     0.054082
    137 H60        27.6077  112.4604   40.2590 gu             0 LIG     0.055721
    138 H61        26.5524  111.7126   42.9652 gv             0 LIG     0.055721
    139 H62        28.3994  112.6830   43.8905 gw             0 LIG     0.065605
    140 H63        28.9922  111.4040   42.7651 gx             0 LIG     0.065605
    141 H64        21.8332  113.7158   47.2589 gy             0 LIG     0.064779
    142 H65        20.9515  113.7563   45.0871 gz             0 LIG     0.061814
    143 H66        22.8315  111.3922   44.3859 hb             0 LIG     0.054082
    144 H67        23.0087  114.2948   43.2927 hd             0 LIG     0.055721
    145 H68        24.9318  113.1995   45.3304 hh             0 LIG     0.055721
    146 H69        25.9881  115.0166   44.0400 hi             0 LIG     0.065605
    147 H70        25.7268  115.5446   45.6473 hj             0 LIG     0.065605
@<TRIPOS>BOND
        1  1  2  1
        2  1  46  1
        3  1  50  1
        4  1  101  1
        5  2  3  1
        6  2  43  1
        7  2  102  1
        8  3  4  1
        9  3  44  1
        10  3  103  1
        11  4  5  1
        12  4  45  1
        13  4  104  1
        14  5  6  1
        15  5  46  1
        16  5  105  1
        17  6  47  1
        18  6  106  1
        19  6  107  1
        20  7  8  1
        21  7  51  1
        22  7  55  1
        23  7  108  1
        24  8  9  1
        25  8  48  1
        26  8  109  1
        27  9  10  1
        28  9  49  1
        29  9  110  1
        30  10  11  1
        31  10  50  1
        32  10  111  1
        33  11  12  1
        34  11  51  1
        35  11  112  1
        36  12  52  1
        37  12  78  1
        38  12  79  1
        39  13  14  1
        40  13  56  1
        41  13  60  1
        42  13  113  1
        43  14  15  1
        44  14  53  1
        45  14  114  1
        46  15  16  1
        47  15  54  1
        48  15  115  1
        49  16  17  1
        50  16  55  1
        51  16  116  1
        52  17  18  1
        53  17  56  1
        54  17  117  1
        55  18  57  1
        56  18  118  1
        57  18  119  1
        58  19  20  1
        59  19  61  1
        60  19  65  1
        61  19  120  1
        62  20  21  1
        63  20  58  1
        64  20  121  1
        65  21  22  1
        66  21  59  1
        67  21  122  1
        68  22  23  1
        69  22  60  1
        70  22  123  1
        71  23  24  1
        72  23  61  1
        73  23  124  1
        74  24  62  1
        75  24  125  1
        76  24  126  1
        77  25  26  1
        78  25  66  1
        79  25  70  1
        80  25  127  1
        81  26  27  1
        82  26  63  1
        83  26  128  1
        84  27  28  1
        85  27  64  1
        86  27  129  1
        87  28  29  1
        88  28  65  1
        89  28  130  1
        90  29  30  1
        91  29  66  1
        92  29  131  1
        93  30  67  1
        94  30  132  1
        95  30  133  1
        96  31  32  1
        97  31  71  1
        98  31  75  1
        99  31  134  1
        100  32  33  1
        101  32  68  1
        102  32  135  1
        103  33  34  1
        104  33  69  1
        105  33  136  1
        106  34  35  1
        107  34  70  1
        108  34  137  1
        109  35  36  1
        110  35  71  1
        111  35  138  1
        112  36  72  1
        113  36  139  1
        114  36  140  1
        115  37  38  1
        116  37  45  1
        117  37  76  1
        118  37  141  1
        119  38  39  1
        120  38  73  1
        121  38  142  1
        122  39  40  1
        123  39  74  1
        124  39  143  1
        125  40  41  1
        126  40  75  1
        127  40  144  1
        128  41  42  1
        129  41  76  1
        130  41  145  1
        131  42  77  1
        132  42  146  1
        133  42  147  1
        134  43  80  1
        135  44  81  1
        136  47  82  1
        137  48  83  1
        138  49  84  1
        139  52  85  1
        140  53  86  1
        141  54  87  1
        142  57  88  1
        143  58  89  1
        144  59  90  1
        145  62  91  1
        146  63  92  1
        147  64  93  1
        148  67  94  1
        149  68  95  1
        150  69  96  1
        151  72  97  1
        152  73  98  1
        153  74  99  1
        154  77  100  1
@<TRIPOS>SUBSTRUCTURE
       1 LIG             1 RESIDUE    0 **** ROOT      0

