@<TRIPOS>MOLECULE
LIG
189 196
SMALL
USER_CHARGES
@<TRIPOS>ATOM
      1 C1         23.6043  111.6934   42.0366 aa             2 LIG     0.430935
      2 C2         23.8385  110.9545   40.7176 ab             1 LIG     0.207656
      3 C3         25.3751  110.6502   40.4094 ad             2 LIG     0.188798
      4 C4         26.3274  111.8357   40.7677 ae             1 LIG     0.195488
      5 C5         25.9996  112.4341   42.2053 af             1 LIG     0.195488
      6 C6         26.8833  113.7227   42.4944 ah             0 LIG     0.166225
      7 C7         22.0842  109.7128   46.7865 ai             2 LIG     0.430935
      8 C8         21.4358  109.0510   45.5214 aj             1 LIG     0.207656
      9 C9         22.4178  109.2126   44.3407 ak             2 LIG     0.188798
     10 C10        22.6598  110.7600   44.0596 an             1 LIG     0.195488
     11 C11        23.1642  111.4017   45.3850 ao             1 LIG     0.195488
     12 C12        23.3480  112.9682   45.2583 ap             0 LIG     0.166225
     13 C13        25.9900  108.9924   50.3596 aq             2 LIG     0.430935
     14 C14        25.1250  107.6932   49.9957 av             1 LIG     0.207656
     15 C15        24.5421  107.8449   48.5721 aw             2 LIG     0.188798
     16 C16        23.8199  109.2425   48.4127 ax             1 LIG     0.195488
     17 C17        24.7251  110.4224   48.7600 ay             1 LIG     0.195488
     18 C18        23.9366  111.7990   48.8448 az             0 LIG     0.166225
     19 C19        31.2749  109.7054   50.0068 bb             2 LIG     0.430935
     20 C20        30.7183  108.2848   50.4787 bc             1 LIG     0.207656
     21 C21        29.3442  107.9757   49.8631 bd             2 LIG     0.188798
     22 C22        28.4090  109.2049   50.0195 bf             1 LIG     0.195488
     23 C23        28.9698  110.5024   49.4892 bg             1 LIG     0.195488
     24 C24        28.0719  111.6917   49.8109 bh             0 LIG     0.166225
     25 C25        34.7573  111.3358   46.2099 bj             2 LIG     0.430935
     26 C26        35.1907  110.4344   47.4219 bk             1 LIG     0.207656
     27 C27        34.0459  109.6213   48.0280 bl             2 LIG     0.188798
     28 C28        32.7941  110.5425   48.3362 bm             1 LIG     0.195488
     29 C29        32.4071  111.4807   47.0693 bn             1 LIG     0.195488
     30 C30        31.3629  112.5098   47.5438 bo             0 LIG     0.166225
     31 C31        33.4429  110.8141   40.9616 bp             2 LIG     0.430935
     32 C32        34.4279  109.7228   41.4618 bq             1 LIG     0.207656
     33 C33        34.3840  109.4741   42.9624 bs             2 LIG     0.188798
     34 C34        34.6685  110.8050   43.7346 bt             1 LIG     0.195488
     35 C35        33.7410  111.8971   43.1489 bu             1 LIG     0.195488
     36 C36        34.2699  113.2598   43.6178 bv             0 LIG     0.166225
     37 C37        28.3364  111.8041   39.5286 bw             1 LIG     0.430935
     38 C38        29.0870  110.7000   38.6981 bx             1 LIG     0.207656
     39 C39        30.3138  110.1766   39.5407 by             2 LIG     0.188798
     40 C40        31.1851  111.2950   40.2671 bz             1 LIG     0.195488
     41 C41        30.3503  112.4386   40.9026 cb             1 LIG     0.195488
     42 C42        31.1640  113.6622   41.0656 ci             0 LIG     0.166225
     43 O1         23.0637  109.7872   40.6994 cj             0 LIG     -0.735959
     44 O2         25.5546  110.1553   39.0493 ck             0 LIG     -0.511627
     45 C43        25.2066  110.9527   37.8699 cm             0 LIG     0.074802
     46 O3         27.7632  111.2938   40.7340 cn             0 LIG     -0.542414
     47 O4         24.6277  112.7621   42.2124 ct             0 LIG     -0.542414
     48 O5         26.6008  114.8750   41.6355 cw             0 LIG     -0.511627
     49 C44        27.7375  115.7465   41.2886 da             0 LIG     0.074802
     50 O6         21.1457  107.6624   45.7697 db             0 LIG     -0.735959
     51 O7         21.8140  108.7054   43.0890 dc             0 LIG     -0.511627
     52 C45        22.0569  107.3073   42.7640 dd             0 LIG     0.074802
     53 O8         23.7688  110.7533   43.1234 de             0 LIG     -0.542414
     54 O9         22.2027  111.1102   46.4714 df             0 LIG     -0.542414
     55 O10        24.4475  113.2571   46.2051 dg             0 LIG     -0.511627
     56 C46        24.7794  114.6808   46.1389 dh             0 LIG     0.074802
     57 O11        25.9014  106.4945   50.1940 di             0 LIG     -0.735959
     58 O12        23.7163  106.7038   48.1988 dj             0 LIG     -0.511627
     59 C47        22.5476  106.4110   49.0113 dk             0 LIG     0.074802
     60 O13        23.4226  109.2541   47.0520 dl             0 LIG     -0.542414
     61 O14        25.3505  110.1878   50.0332 dm             0 LIG     -0.542414
     62 O15        22.7102  111.6098   49.6187 dn             0 LIG     -0.511627
     63 C48        21.8723  112.7666   49.8008 do             0 LIG     0.074802
     64 O16        31.6724  107.2758   50.0148 dp             0 LIG     -0.735959
     65 O17        28.7009  106.8860   50.4450 dq             0 LIG     -0.511627
     66 C49        28.9106  105.6265   49.8026 dr             0 LIG     0.074802
     67 O18        27.1127  108.9176   49.5426 ds             0 LIG     -0.542414
     68 O19        30.2530  110.6977   50.2173 dt             0 LIG     -0.542414
     69 O20        28.7307  112.8777   49.4147 dv             0 LIG     -0.511627
     70 C50        27.9518  114.0619   49.5287 dw             0 LIG     0.074802
     71 O21        36.2486  109.5891   46.8846 dx             0 LIG     -0.735959
     72 O22        34.4384  109.0539   49.2927 dz             0 LIG     -0.511627
     73 C51        35.0591  107.7276   49.3409 ea             0 LIG     0.074802
     74 O23        31.6370  109.6748   48.6179 eb             0 LIG     -0.542414
     75 O24        33.5889  112.1389   46.5891 ec             0 LIG     -0.542414
     76 O25        31.6638  113.7779   46.9379 ed             0 LIG     -0.511627
     77 C52        30.8975  114.9326   47.4258 ee             0 LIG     0.074802
     78 O26        34.1600  108.4318   40.7326 ef             0 LIG     -0.735959
     79 O27        35.2923  108.3591   43.3783 eg             0 LIG     -0.511627
     80 C53        36.7328  108.6681   43.3075 eh             0 LIG     0.074802
     81 O28        34.3343  110.5516   45.1479 ei             0 LIG     -0.542414
     82 O29        33.8727  111.9621   41.6527 ej             0 LIG     -0.542414
     83 O30        35.6457  113.4748   43.2102 ek             0 LIG     -0.511627
     84 C54        36.1477  114.6797   43.6665 el             0 LIG     0.074802
     85 O31        28.3177  109.5956   38.1942 em             0 LIG     -0.735959
     86 O32        31.2341  109.5009   38.6156 en             0 LIG     -0.511627
     87 C55        31.0549  108.1385   38.5701 eo             0 LIG     0.074802
     88 O33        32.0229  110.6015   41.2160 eq             0 LIG     -0.542414
     89 O34        29.2548  112.7742   39.9987 es             0 LIG     -0.542414
     90 O35        31.6825  114.0859   39.7055 et             0 LIG     -0.511627
     91 C56        32.6827  115.1480   39.7589 ev             0 LIG     0.074802
     92 H1         22.4547  113.4950   45.4971 ew             0 LIG     0.056965
     93 H2         23.6438  113.2942   44.2445 ex             0 LIG     0.056965
     94 H3         22.9057  109.5905   41.6142 ey             0 LIG     0.497876
     95 H4         24.1230  111.1104   37.7721 ez             0 LIG     0.066990
     96 H5         25.6609  110.4816   37.0375 fa             0 LIG     0.066990
     97 H6         25.7408  111.9188   37.9482 fb             0 LIG     0.066990
     98 H7         28.4706  115.8754   42.1017 fc             0 LIG     0.066990
     99 H8         27.3449  116.7771   41.0219 fd             0 LIG     0.066990
    100 H9         28.3008  115.4176   40.4210 ff             0 LIG     0.066990
    101 H10        21.9547  107.1175   45.4201 fg             0 LIG     0.497876
    102 H11        21.4701  106.6015   43.4039 fh             0 LIG     0.066990
    103 H12        23.1428  107.1667   42.7743 fi             0 LIG     0.066990
    104 H13        21.7881  107.1120   41.7142 fj             0 LIG     0.066990
    105 H14        25.4267  115.0039   46.9309 fk             0 LIG     0.066990
    106 H15        23.8777  115.2890   46.3445 fl             0 LIG     0.066990
    107 H16        25.2572  114.9797   45.1937 fm             0 LIG     0.066990
    108 H17        26.9417  106.6642   50.1461 fn             0 LIG     0.497876
    109 H18        22.8317  106.0956   50.0760 fo             0 LIG     0.066990
    110 H19        22.0117  105.5757   48.5463 fp             0 LIG     0.066990
    111 H20        21.8269  107.1994   49.0973 fq             0 LIG     0.066990
    112 H21        21.0022  112.4524   50.3757 fs             0 LIG     0.066990
    113 H22        21.5387  113.0747   48.8107 ft             0 LIG     0.066990
    114 H23        22.4212  113.4898   50.4606 fu             0 LIG     0.066990
    115 H24        31.6667  107.2157   49.0020 fv             0 LIG     0.497876
    116 H25        28.5919  105.7869   48.7820 fw             0 LIG     0.066990
    117 H26        28.3617  104.7705   50.3504 fx             0 LIG     0.066990
    118 H27        29.9479  105.3321   49.8445 fy             0 LIG     0.066990
    119 H28        28.5118  114.9443   49.3411 fz             0 LIG     0.066990
    120 H29        27.4470  114.2241   50.5416 gb             0 LIG     0.066990
    121 H30        27.1180  114.1352   48.8745 gc             0 LIG     0.066990
    122 H31        35.8696  108.7296   46.7492 gf             0 LIG     0.497876
    123 H32        34.3197  106.9961   49.0112 gg             0 LIG     0.066990
    124 H33        35.2206  107.4766   50.4302 gh             0 LIG     0.066990
    125 H34        35.9271  107.5800   48.6729 gi             0 LIG     0.066990
    126 H35        31.2524  115.8671   46.9409 gj             0 LIG     0.066990
    127 H36        30.8780  115.1120   48.5048 gk             0 LIG     0.066990
    128 H37        29.8621  114.8171   47.0699 gl             0 LIG     0.066990
    129 H38        34.5697  108.6637   39.8274 gm             0 LIG     0.497876
    130 H39        37.0538  108.9993   42.2711 gn             0 LIG     0.066990
    131 H40        37.2553  107.8504   43.6183 go             0 LIG     0.066990
    132 H41        36.9969  109.4192   44.0566 gp             0 LIG     0.066990
    133 H42        37.1786  114.6348   43.7956 gq             0 LIG     0.066990
    134 H43        35.7810  114.8748   44.6704 gr             0 LIG     0.066990
    135 H44        35.9226  115.4661   42.9189 gs             0 LIG     0.066990
    136 H45        28.2709  109.8317   37.2161 gt             0 LIG     0.497876
    137 H46        30.0149  107.9374   38.5586 gu             0 LIG     0.066990
    138 H47        31.5024  107.6745   39.4806 gv             0 LIG     0.066990
    139 H48        31.5269  107.7446   37.6242 gw             0 LIG     0.066990
    140 H49        33.6467  114.8091   40.1399 gx             0 LIG     0.066990
    141 H50        32.2777  115.8003   40.5042 gy             0 LIG     0.066990
    142 H51        32.7388  115.6329   38.7289 gz             0 LIG     0.066990
    143 H52        22.6174  112.1684   42.0765 hb             0 LIG     0.060700
    144 H53        23.5478  111.5094   39.8170 hd             0 LIG     0.055736
    145 H54        25.7778  109.8042   40.9800 hh             0 LIG     0.078119
    146 H55        26.1829  112.6815   40.0842 hi             0 LIG     0.050773
    147 H56        26.2388  111.6006   42.8772 hj             0 LIG     0.050773
    148 H57        26.7485  113.9334   43.5625 hk             0 LIG     0.056965
    149 H58        27.9500  113.4914   42.3845 hl             0 LIG     0.056965
    150 H59        21.3670  109.5360   47.5962 hm             0 LIG     0.060700
    151 H60        20.5397  109.6372   45.2829 hq             0 LIG     0.055736
    152 H61        23.3952  108.7278   44.4558 hr             0 LIG     0.078119
    153 H62        21.7553  111.2460   43.6734 ht             0 LIG     0.050773
    154 H63        24.1594  110.9945   45.6026 hu             0 LIG     0.050773
    155 H64        26.2449  108.9684   51.4253 hv             0 LIG     0.060700
    156 H65        24.2670  107.6056   50.6736 hy             0 LIG     0.055736
    157 H66        25.4270  107.8556   47.9238 hz             0 LIG     0.078119
    158 H67        23.0092  109.2031   49.1029 ia             0 LIG     0.050773
    159 H68        25.4591  110.6332   48.0269 ib             0 LIG     0.050773
    160 H69        23.6327  112.2037   47.9252 ic             0 LIG     0.056965
    161 H70        24.5407  112.5905   49.3795 id             0 LIG     0.056965
    162 H71        32.0922  110.0265   50.7032 ie             0 LIG     0.060700
    163 H72        30.6666  108.2383   51.5533 if             0 LIG     0.055736
    164 H73        29.4300  107.9496   48.8201 ig             0 LIG     0.078119
    165 H74        28.3395  109.2257   51.1162 ih             0 LIG     0.050773
    166 H75        29.0977  110.3680   48.3419 ii             0 LIG     0.050773
    167 H76        27.1864  111.4598   49.1751 ij             0 LIG     0.056965
    168 H77        27.8477  111.7289   50.9000 ik             0 LIG     0.056965
    169 H78        35.5700  112.0617   45.8971 il             0 LIG     0.060700
    170 H79        35.6625  111.0449   48.1945 im             0 LIG     0.055736
    171 H80        33.8409  108.7635   47.3590 io             0 LIG     0.078119
    172 H81        33.0631  111.1673   49.2327 ip             0 LIG     0.050773
    173 H82        32.0884  110.8210   46.2517 iq             0 LIG     0.050773
    174 H83        30.3130  112.1480   47.3443 is             0 LIG     0.056965
    175 H84        31.3513  112.6564   48.6539 it             0 LIG     0.056965
    176 H85        33.5899  111.0405   39.9146 iu             0 LIG     0.060700
    177 H86        35.3597  110.2409   41.3164 iv             0 LIG     0.055736
    178 H87        33.4089  109.1225   43.2681 iw             0 LIG     0.078119
    179 H88        35.6788  111.1647   43.6654 ix             0 LIG     0.050773
    180 H89        32.6653  111.8309   43.4114 iy             0 LIG     0.050773
    181 H90        33.6286  113.9602   43.1489 iz             0 LIG     0.056965
    182 H91        34.2304  113.4016   44.6830 ja             0 LIG     0.056965
    183 H92        27.5971  112.3106   38.9547 jb             0 LIG     0.060700
    184 H93        29.4578  111.1936   37.7819 jc             0 LIG     0.055736
    185 H94        29.9594  109.5026   40.3174 jd             0 LIG     0.078119
    186 H95        31.7435  111.7612   39.4887 je             0 LIG     0.050773
    187 H96        30.0622  111.9412   41.8412 jf             0 LIG     0.050773
    188 H97        31.8999  113.4935   41.7199 jg             0 LIG     0.056965
    189 H98        30.4968  114.4153   41.5223 jh             0 LIG     0.056965
@<TRIPOS>BOND
        1  1  2  1
        2  1  47  1
        3  1  53  1
        4  1  143  1
        5  2  3  1
        6  2  43  1
        7  2  144  1
        8  3  4  1
        9  3  44  1
        10  3  145  1
        11  4  5  1
        12  4  46  1
        13  4  146  1
        14  5  6  1
        15  5  47  1
        16  5  147  1
        17  6  48  1
        18  6  148  1
        19  6  149  1
        20  7  8  1
        21  7  54  1
        22  7  60  1
        23  7  150  1
        24  8  9  1
        25  8  50  1
        26  8  151  1
        27  9  10  1
        28  9  51  1
        29  9  152  1
        30  10  11  1
        31  10  53  1
        32  10  153  1
        33  11  12  1
        34  11  54  1
        35  11  154  1
        36  12  55  1
        37  12  92  1
        38  12  93  1
        39  13  14  1
        40  13  61  1
        41  13  67  1
        42  13  155  1
        43  14  15  1
        44  14  57  1
        45  14  156  1
        46  15  16  1
        47  15  58  1
        48  15  157  1
        49  16  17  1
        50  16  60  1
        51  16  158  1
        52  17  18  1
        53  17  61  1
        54  17  159  1
        55  18  62  1
        56  18  160  1
        57  18  161  1
        58  19  20  1
        59  19  68  1
        60  19  74  1
        61  19  162  1
        62  20  21  1
        63  20  64  1
        64  20  163  1
        65  21  22  1
        66  21  65  1
        67  21  164  1
        68  22  23  1
        69  22  67  1
        70  22  165  1
        71  23  24  1
        72  23  68  1
        73  23  166  1
        74  24  69  1
        75  24  167  1
        76  24  168  1
        77  25  26  1
        78  25  75  1
        79  25  81  1
        80  25  169  1
        81  26  27  1
        82  26  71  1
        83  26  170  1
        84  27  28  1
        85  27  72  1
        86  27  171  1
        87  28  29  1
        88  28  74  1
        89  28  172  1
        90  29  30  1
        91  29  75  1
        92  29  173  1
        93  30  76  1
        94  30  174  1
        95  30  175  1
        96  31  32  1
        97  31  82  1
        98  31  88  1
        99  31  176  1
        100  32  33  1
        101  32  78  1
        102  32  177  1
        103  33  34  1
        104  33  79  1
        105  33  178  1
        106  34  35  1
        107  34  81  1
        108  34  179  1
        109  35  36  1
        110  35  82  1
        111  35  180  1
        112  36  83  1
        113  36  181  1
        114  36  182  1
        115  37  38  1
        116  37  46  1
        117  37  89  1
        118  37  183  1
        119  38  39  1
        120  38  85  1
        121  38  184  1
        122  39  40  1
        123  39  86  1
        124  39  185  1
        125  40  41  1
        126  40  88  1
        127  40  186  1
        128  41  42  1
        129  41  89  1
        130  41  187  1
        131  42  90  1
        132  42  188  1
        133  42  189  1
        134  43  94  1
        135  44  45  1
        136  45  95  1
        137  45  96  1
        138  45  97  1
        139  48  49  1
        140  49  98  1
        141  49  99  1
        142  49  100  1
        143  50  101  1
        144  51  52  1
        145  52  102  1
        146  52  103  1
        147  52  104  1
        148  55  56  1
        149  56  105  1
        150  56  106  1
        151  56  107  1
        152  57  108  1
        153  58  59  1
        154  59  109  1
        155  59  110  1
        156  59  111  1
        157  62  63  1
        158  63  112  1
        159  63  113  1
        160  63  114  1
        161  64  115  1
        162  65  66  1
        163  66  116  1
        164  66  117  1
        165  66  118  1
        166  69  70  1
        167  70  119  1
        168  70  120  1
        169  70  121  1
        170  71  122  1
        171  72  73  1
        172  73  123  1
        173  73  124  1
        174  73  125  1
        175  76  77  1
        176  77  126  1
        177  77  127  1
        178  77  128  1
        179  78  129  1
        180  79  80  1
        181  80  130  1
        182  80  131  1
        183  80  132  1
        184  83  84  1
        185  84  133  1
        186  84  134  1
        187  84  135  1
        188  85  136  1
        189  86  87  1
        190  87  137  1
        191  87  138  1
        192  87  139  1
        193  90  91  1
        194  91  140  1
        195  91  141  1
        196  91  142  1
@<TRIPOS>SUBSTRUCTURE
       1 LIG             1 RESIDUE    0 **** ROOT      0

