bCD
                    3D

147154  0  0  1  0            999 V2000
   31.8034  106.6646   48.9996  C    0  0  2  0  0  0
   30.3277  106.1228   49.0956  C    0  0  1  0  0  0
   29.4436  106.8793   48.0432  C    0  0  2  0  0  0
   29.5462  108.3910   48.1357  C    0  0  1  0  0  0
   31.1192  108.7919   48.0422  C    0  0  1  0  0  0
   31.5066  110.3013   48.0660  C    0  0  0  0  0  0
   35.7743  104.6935   45.7475  C    0  0  2  0  0  0
   34.7091  103.6968   46.4798  C    0  0  1  0  0  0
   33.3529  104.4103   46.6982  C    0  0  2  0  0  0
   33.6202  105.7200   47.5043  C    0  0  1  0  0  0
   34.6365  106.6156   46.7674  C    0  0  1  0  0  0
   35.0762  107.7566   47.6461  C    0  0  0  0  0  0
   36.2761  104.1953   40.4646  C    0  0  2  0  0  0
   35.3053  103.1086   41.1621  C    0  0  1  0  0  0
   34.6984  103.8067   42.4480  C    0  0  2  0  0  0
   35.8686  104.2587   43.3724  C    0  0  1  0  0  0
   36.8811  105.1690   42.6236  C    0  0  1  0  0  0
   38.1920  105.4947   43.3918  C    0  0  0  0  0  0
   34.8504  108.1893   37.2331  C    0  0  2  0  0  0
   34.4439  106.7332   36.9207  C    0  0  1  0  0  0
   34.4349  105.9048   38.1622  C    0  0  2  0  0  0
   35.8626  105.9645   38.8133  C    0  0  1  0  0  0
   36.3344  107.4168   38.9958  C    0  0  1  0  0  0
   37.8510  107.4865   39.4185  C    0  0  0  0  0  0
   31.3346  112.0790   38.8050  C    0  0  2  0  0  0
   31.1402  111.2637   37.5546  C    0  0  1  0  0  0
   31.7765  109.8055   37.7307  C    0  0  2  0  0  0
   33.3165  109.9851   37.9510  C    0  0  1  0  0  0
   33.5336  110.9416   39.1581  C    0  0  1  0  0  0
   35.0261  111.2331   39.4197  C    0  0  0  0  0  0
   27.9081  112.6083   42.9828  C    0  0  2  0  0  0
   27.6264  113.0057   41.4762  C    0  0  1  0  0  0
   28.4209  112.1007   40.5227  C    0  0  2  0  0  0
   29.9258  112.2835   40.8551  C    0  0  1  0  0  0
   30.1329  111.8285   42.3405  C    0  0  1  0  0  0
   31.6314  111.8351   42.7514  C    0  0  0  0  0  0
   27.5311  109.4782   47.1662  C    0  0  1  0  0  0
   26.6427  108.8188   45.9961  C    0  0  1  0  0  0
   26.9896  109.3750   44.6326  C    0  0  2  0  0  0
   27.0854  110.9855   44.5931  C    0  0  1  0  0  0
   27.9655  111.5336   45.7678  C    0  0  1  0  0  0
   28.0968  113.0556   46.0169  C    0  0  0  0  0  0
   30.3708  104.6993   48.8706  O    0  0  0  0  0  0
   28.0317  106.4720   48.1046  O    0  0  0  0  0  0
   28.8992  108.9899   46.9973  O    0  0  0  0  0  0
   31.8560  108.1188   49.1205  O    0  0  0  0  0  0
   31.1687  110.9140   49.3492  O    0  0  0  0  0  0
   34.4905  102.5023   45.6749  O    0  0  0  0  0  0
   32.3794  103.5647   47.3252  O    0  0  0  0  0  0
   32.2462  106.3174   47.6729  O    0  0  0  0  0  0
   35.8588  105.9215   46.5006  O    0  0  0  0  0  0
   35.9275  108.6551   46.8670  O    0  0  0  0  0  0
   34.2262  102.6241   40.3302  O    0  0  0  0  0  0
   33.7979  102.9053   43.1597  O    0  0  0  0  0  0
   35.2779  105.0821   44.4420  O    0  0  0  0  0  0
   37.2893  104.5168   41.3879  O    0  0  0  0  0  0
   39.0077  104.3663   43.4308  O    0  0  0  0  0  0
   33.0694  106.7010   36.4396  O    0  0  0  0  0  0
   33.8583  104.5756   37.9653  O    0  0  0  0  0  0
   35.5730  105.4547   40.1240  O    0  0  0  0  0  0
   36.1720  108.2553   37.7975  O    0  0  0  0  0  0
   38.3373  108.7361   39.7664  O    0  0  0  0  0  0
   29.7168  111.0717   37.2613  O    0  0  0  0  0  0
   31.5826  109.0683   36.5730  O    0  0  0  0  0  0
   34.0054  108.7184   38.2191  O    0  0  0  0  0  0
   32.7571  112.1963   38.9686  O    0  0  0  0  0  0
   35.1246  112.2868   40.2816  O    0  0  0  0  0  0
   26.2069  112.9070   41.0801  O    0  0  0  0  0  0
   28.1592  112.5001   39.2045  O    0  0  0  0  0  0
   30.6799  111.4559   39.9267  O    0  0  0  0  0  0
   29.2769  112.6944   43.1812  O    0  0  0  0  0  0
   32.1894  113.1124   42.5566  O    0  0  0  0  0  0
   26.8100  107.3928   46.0173  O    0  0  0  0  0  0
   26.0740  108.9188   43.6578  O    0  0  0  0  0  0
   27.5243  111.2860   43.2672  O    0  0  0  0  0  0
   27.5550  110.9246   47.1235  O    0  0  0  0  0  0
   26.7646  113.7243   46.0000  O    0  0  0  0  0  0
   35.5487  107.3630   48.5316  H    0  0  0  0  0  0
   34.1787  108.2794   48.0017  H    0  0  0  0  0  0
   31.0094  104.5434   48.1360  H    0  0  0  0  0  0
   27.8320  106.2482   49.0711  H    0  0  0  0  0  0
   31.9609  110.8930   49.8799  H    0  0  0  0  0  0
   34.1688  102.7715   44.7564  H    0  0  0  0  0  0
   32.8704  102.7218   47.4374  H    0  0  0  0  0  0
   36.4326  108.1457   46.1632  H    0  0  0  0  0  0
   34.6642  101.8168   39.7977  H    0  0  0  0  0  0
   33.6192  102.1650   42.5399  H    0  0  0  0  0  0
   38.8661  103.9895   42.4452  H    0  0  0  0  0  0
   32.8075  105.7489   36.4306  H    0  0  0  0  0  0
   33.7114  104.2580   38.9329  H    0  0  0  0  0  0
   38.0581  109.3565   39.0316  H    0  0  0  0  0  0
   29.2451  111.5214   38.0238  H    0  0  0  0  0  0
   32.0681  108.2041   36.7414  H    0  0  0  0  0  0
   34.5432  113.0313   39.9123  H    0  0  0  0  0  0
   26.0650  111.9065   41.2277  H    0  0  0  0  0  0
   27.4177  113.1884   39.2780  H    0  0  0  0  0  0
   31.8606  113.6530   43.2986  H    0  0  0  0  0  0
   27.3780  107.2116   46.8430  H    0  0  0  0  0  0
   25.7324  109.7351   43.1714  H    0  0  0  0  0  0
   26.1680  113.2073   46.5399  H    0  0  0  0  0  0
   32.4154  106.1906   49.7943  H    0  0  0  0  0  0
   29.9405  106.2793   50.1055  H    0  0  0  0  0  0
   29.8447  106.6182   47.0061  H    0  0  0  0  0  0
   29.1462  108.7135   49.0468  H    0  0  0  0  0  0
   31.5070  108.4261   47.0631  H    0  0  0  0  0  0
   32.5148  110.4564   47.8342  H    0  0  0  0  0  0
   30.8243  110.7924   47.2892  H    0  0  0  0  0  0
   36.7468  104.1284   45.6156  H    0  0  0  0  0  0
   35.1087  103.4277   47.5255  H    0  0  0  0  0  0
   33.0040  104.6086   45.6619  H    0  0  0  0  0  0
   34.0614  105.4774   48.4193  H    0  0  0  0  0  0
   34.1853  106.9784   45.8501  H    0  0  0  0  0  0
   36.7009  103.8750   39.5255  H    0  0  0  0  0  0
   35.9905  102.2633   41.5004  H    0  0  0  0  0  0
   34.1635  104.7796   42.2153  H    0  0  0  0  0  0
   36.3899  103.3912   43.7211  H    0  0  0  0  0  0
   36.4845  106.1689   42.3744  H    0  0  0  0  0  0
   37.9147  105.8709   44.4379  H    0  0  0  0  0  0
   38.6114  106.3618   42.8061  H    0  0  0  0  0  0
   34.8845  108.8535   36.3427  H    0  0  0  0  0  0
   35.1702  106.3038   36.2293  H    0  0  0  0  0  0
   33.7203  106.4364   38.8842  H    0  0  0  0  0  0
   36.5619  105.3485   38.2234  H    0  0  0  0  0  0
   35.6821  107.7902   39.7892  H    0  0  0  0  0  0
   38.0972  106.7277   40.2028  H    0  0  0  0  0  0
   38.4046  107.0884   38.5113  H    0  0  0  0  0  0
   31.0020  113.1292   38.7589  H    0  0  0  0  0  0
   31.6476  111.8308   36.7405  H    0  0  0  0  0  0
   31.4160  109.2994   38.6543  H    0  0  0  0  0  0
   33.6859  110.3824   36.9739  H    0  0  0  0  0  0
   33.1127  110.4675   40.0833  H    0  0  0  0  0  0
   35.4837  110.3966   39.8985  H    0  0  0  0  0  0
   35.4748  111.4511   38.4940  H    0  0  0  0  0  0
   27.4441  113.2665   43.6985  H    0  0  0  0  0  0
   27.9164  114.0733   41.3910  H    0  0  0  0  0  0
   28.1302  111.0420   40.7491  H    0  0  0  0  0  0
   30.2912  113.3301   40.8249  H    0  0  0  0  0  0
   29.7144  110.8263   42.2925  H    0  0  0  0  0  0
   31.7702  111.6144   43.8281  H    0  0  0  0  0  0
   32.2092  111.0119   42.2088  H    0  0  0  0  0  0
   27.0587  109.1398   48.0707  H    0  0  0  0  0  0
   25.6163  108.9428   46.2294  H    0  0  0  0  0  0
   28.0077  109.1142   44.3184  H    0  0  0  0  0  0
   26.0883  111.3280   44.8964  H    0  0  0  0  0  0
   28.9636  111.1765   45.4854  H    0  0  0  0  0  0
   28.7776  113.5665   45.3249  H    0  0  0  0  0  0
   28.5369  113.2946   46.9929  H    0  0  0  0  0  0
  1  2  1  0  0  0
  1 46  1  0  0  0
  1 50  1  0  0  0
  1101  1  0  0  0
  2  3  1  0  0  0
  2 43  1  0  0  0
  2102  1  0  0  0
  3  4  1  0  0  0
  3 44  1  0  0  0
  3103  1  0  0  0
  4  5  1  0  0  0
  4 45  1  0  0  0
  4104  1  0  0  0
  5  6  1  0  0  0
  5 46  1  0  0  0
  5105  1  0  0  0
  6 47  1  0  0  0
  6106  1  0  0  0
  6107  1  0  0  0
  7  8  1  0  0  0
  7 51  1  0  0  0
  7 55  1  0  0  0
  7108  1  0  0  0
  8  9  1  0  0  0
  8 48  1  0  0  0
  8109  1  0  0  0
  9 10  1  0  0  0
  9 49  1  0  0  0
  9110  1  0  0  0
 10 11  1  0  0  0
 10 50  1  0  0  0
 10111  1  0  0  0
 11 12  1  0  0  0
 11 51  1  0  0  0
 11112  1  0  0  0
 12 52  1  0  0  0
 12 78  1  0  0  0
 12 79  1  0  0  0
 13 14  1  0  0  0
 13 56  1  0  0  0
 13 60  1  0  0  0
 13113  1  0  0  0
 14 15  1  0  0  0
 14 53  1  0  0  0
 14114  1  0  0  0
 15 16  1  0  0  0
 15 54  1  0  0  0
 15115  1  0  0  0
 16 17  1  0  0  0
 16 55  1  0  0  0
 16116  1  0  0  0
 17 18  1  0  0  0
 17 56  1  0  0  0
 17117  1  0  0  0
 18 57  1  0  0  0
 18118  1  0  0  0
 18119  1  0  0  0
 19 20  1  0  0  0
 19 61  1  0  0  0
 19 65  1  0  0  0
 19120  1  0  0  0
 20 21  1  0  0  0
 20 58  1  0  0  0
 20121  1  0  0  0
 21 22  1  0  0  0
 21 59  1  0  0  0
 21122  1  0  0  0
 22 23  1  0  0  0
 22 60  1  0  0  0
 22123  1  0  0  0
 23 24  1  0  0  0
 23 61  1  0  0  0
 23124  1  0  0  0
 24 62  1  0  0  0
 24125  1  0  0  0
 24126  1  0  0  0
 25 26  1  0  0  0
 25 66  1  0  0  0
 25 70  1  0  0  0
 25127  1  0  0  0
 26 27  1  0  0  0
 26 63  1  0  0  0
 26128  1  0  0  0
 27 28  1  0  0  0
 27 64  1  0  0  0
 27129  1  0  0  0
 28 29  1  0  0  0
 28 65  1  0  0  0
 28130  1  0  0  0
 29 30  1  0  0  0
 29 66  1  0  0  0
 29131  1  0  0  0
 30 67  1  0  0  0
 30132  1  0  0  0
 30133  1  0  0  0
 31 32  1  0  0  0
 31 71  1  0  0  0
 31 75  1  0  0  0
 31134  1  0  0  0
 32 33  1  0  0  0
 32 68  1  0  0  0
 32135  1  0  0  0
 33 34  1  0  0  0
 33 69  1  0  0  0
 33136  1  0  0  0
 34 35  1  0  0  0
 34 70  1  0  0  0
 34137  1  0  0  0
 35 36  1  0  0  0
 35 71  1  0  0  0
 35138  1  0  0  0
 36 72  1  0  0  0
 36139  1  0  0  0
 36140  1  0  0  0
 37 38  1  0  0  0
 37 45  1  0  0  0
 37 76  1  0  0  0
 37141  1  0  0  0
 38 39  1  0  0  0
 38 73  1  0  0  0
 38142  1  0  0  0
 39 40  1  0  0  0
 39 74  1  0  0  0
 39143  1  0  0  0
 40 41  1  0  0  0
 40 75  1  0  0  0
 40144  1  0  0  0
 41 42  1  0  0  0
 41 76  1  0  0  0
 41145  1  0  0  0
 42 77  1  0  0  0
 42146  1  0  0  0
 42147  1  0  0  0
 43 80  1  0  0  0
 44 81  1  0  0  0
 47 82  1  0  0  0
 48 83  1  0  0  0
 49 84  1  0  0  0
 52 85  1  0  0  0
 53 86  1  0  0  0
 54 87  1  0  0  0
 57 88  1  0  0  0
 58 89  1  0  0  0
 59 90  1  0  0  0
 62 91  1  0  0  0
 63 92  1  0  0  0
 64 93  1  0  0  0
 67 94  1  0  0  0
 68 95  1  0  0  0
 69 96  1  0  0  0
 72 97  1  0  0  0
 73 98  1  0  0  0
 74 99  1  0  0  0
 77100  1  0  0  0
M  END
> <s_m_entry_id>
15

> <s_m_Source_Path>
/home/emilio/Dropbox/sims/SAMPL9/work/receptor

> <s_m_Source_File>
bCD.mol2

> <i_m_Source_File_Index>
1

$$$$

