PHM0appR
                    3D
 Schrodinger Suite 2019-4.
 26 28  0  0  1  0            999 V2000
   27.6252  109.0912   38.9904 C   0  0  0  0  0  0
   28.4110  112.5004   44.2842 C   0  0  0  0  0  0
   26.3135  109.4828   38.7534 C   0  0  0  0  0  0
   27.1330  113.0452   44.2973 C   0  0  0  0  0  0
   28.5106  109.9638   39.6204 C   0  0  0  0  0  0
   29.0238  112.1898   43.0719 C   0  0  0  0  0  0
   25.8859  110.7389   39.1679 C   0  0  0  0  0  0
   26.4646  113.2593   43.0972 C   0  0  0  0  0  0
   28.1171  111.2541   40.0324 C   0  0  0  0  0  0
   28.3825  112.4130   41.8344 C   0  0  0  0  0  0
   26.7674  111.6107   39.8116 C   0  0  0  0  0  0
   27.0713  112.9377   41.8807 C   0  0  0  0  0  0
   30.4504  112.4312   40.2788 C   0  0  0  0  0  0
   29.0270  112.1844   40.5926 N   0  0  0  0  0  0
   26.1293  113.1288   40.4144 S   0  0  0  0  0  0
   27.9593  108.1112   38.6828 H   0  0  0  0  0  0
   28.9316  112.3233   45.2138 H   0  0  0  0  0  0
   25.6252  108.8094   38.2642 H   0  0  0  0  0  0
   26.6560  113.2894   45.2351 H   0  0  0  0  0  0
   29.5111  109.5975   39.7732 H   0  0  0  0  0  0
   30.0190  111.7794   43.1296 H   0  0  0  0  0  0
   24.8568  111.0262   39.0064 H   0  0  0  0  0  0
   25.4609  113.6592   43.1159 H   0  0  0  0  0  0
   31.0154  112.4892   41.2103 H   0  0  0  0  0  0
   30.5651  113.4407   39.8804 H   0  0  0  0  0  0
   30.8552  111.6780   39.6029 H   0  0  0  0  0  0
  1  3  2  0  0  0
  1  5  1  0  0  0
  1 16  1  0  0  0
  2  4  2  0  0  0
  2  6  1  0  0  0
  2 17  1  0  0  0
  3  7  1  0  0  0
  3 18  1  0  0  0
  4  8  1  0  0  0
  4 19  1  0  0  0
  5  9  2  0  0  0
  5 20  1  0  0  0
  6 10  2  0  0  0
  6 21  1  0  0  0
  7 11  2  0  0  0
  7 22  1  0  0  0
  8 12  2  0  0  0
  8 23  1  0  0  0
  9 11  1  0  0  0
  9 14  1  0  0  0
 10 12  1  0  0  0
 10 14  1  0  0  0
 11 15  1  0  0  0
 12 15  1  0  0  0
 13 14  1  0  0  0
 13 24  1  0  0  0
 13 25  1  0  0  0
 13 26  1  0  0  0
M  END
> <s_m_entry_id>
195

> <s_m_Source_Path>
/nfs/egallicchio/Dropbox/sims/SAMPL9

> <s_m_Source_File>
PMZ.mol2

> <i_m_Source_File_Index>
1

> <r_epik_Ionization_Penalty>
  0.0034

> <r_epik_State_Penalty>
  0.0024

> <i_epik_Tot_Q>
1

> <i_f3d_flags>
0

> <s_m_job_name>
ligprep_4

$$$$
