PHM0apsR
                    3D
 Schrodinger Suite 2019-4.
 26 28  0  0  1  0            999 V2000
   27.8141  113.8871   43.8551 C   0  0  0  0  0  0
   24.9246  110.9784   39.1031 C   0  0  0  0  0  0
   28.5096  112.7748   44.3121 C   0  0  0  0  0  0
   25.4783  109.7263   39.3397 C   0  0  0  0  0  0
   27.5338  114.0250   42.4969 C   0  0  0  0  0  0
   25.6526  112.1293   39.3979 C   0  0  0  0  0  0
   28.9033  111.7925   43.4107 C   0  0  0  0  0  0
   26.7519  109.6304   39.8890 C   0  0  0  0  0  0
   27.9393  113.0597   41.5517 C   0  0  0  0  0  0
   26.9557  112.0688   39.9371 C   0  0  0  0  0  0
   28.6122  111.9213   42.0505 C   0  0  0  0  0  0
   27.4796  110.7824   40.1969 C   0  0  0  0  0  0
   27.8097  114.4382   39.3127 C   0  0  0  0  0  0
   27.7407  113.2281   40.1591 N   0  0  0  0  0  0
   29.0313  110.5891   40.9899 S   0  0  0  0  0  0
   27.4936  114.6469   44.5527 H   0  0  0  0  0  0
   23.9320  111.0591   38.6851 H   0  0  0  0  0  0
   28.7296  112.6657   45.3639 H   0  0  0  0  0  0
   24.9177  108.8320   39.1102 H   0  0  0  0  0  0
   26.9920  114.9098   42.2107 H   0  0  0  0  0  0
   25.1708  113.0692   39.1818 H   0  0  0  0  0  0
   29.4187  110.9161   43.7767 H   0  0  0  0  0  0
   27.1662  108.6538   40.0944 H   0  0  0  0  0  0
   28.5896  114.3034   38.5618 H   0  0  0  0  0  0
   28.2011  115.2707   39.8998 H   0  0  0  0  0  0
   26.8462  114.6753   38.8615 H   0  0  0  0  0  0
  1  3  2  0  0  0
  1  5  1  0  0  0
  1 16  1  0  0  0
  2  4  2  0  0  0
  2  6  1  0  0  0
  2 17  1  0  0  0
  3  7  1  0  0  0
  3 18  1  0  0  0
  4  8  1  0  0  0
  4 19  1  0  0  0
  5  9  2  0  0  0
  5 20  1  0  0  0
  6 10  2  0  0  0
  6 21  1  0  0  0
  7 11  2  0  0  0
  7 22  1  0  0  0
  8 12  2  0  0  0
  8 23  1  0  0  0
  9 11  1  0  0  0
  9 14  1  0  0  0
 10 12  1  0  0  0
 10 14  1  0  0  0
 11 15  1  0  0  0
 12 15  1  0  0  0
 13 14  1  0  0  0
 13 24  1  0  0  0
 13 25  1  0  0  0
 13 26  1  0  0  0
M  END
> <s_m_entry_id>
196

> <s_m_Source_Path>
/nfs/egallicchio/Dropbox/sims/SAMPL9

> <s_m_Source_File>
PMZ.mol2

> <i_m_Source_File_Index>
1

> <r_epik_Ionization_Penalty>
  0.0034

> <r_epik_State_Penalty>
  0.0024

> <i_epik_Tot_Q>
1

> <i_f3d_flags>
0

> <s_m_job_name>
ligprep_4

$$$$
