@<TRIPOS>MOLECULE
LIG
26 28
SMALL
USER_CHARGES
@<TRIPOS>ATOM
      1 C1         23.9684  111.2971   38.5255 TA             0 LIG     -0.154775
      2 C2         22.5992  105.3859   40.7941 TB             0 LIG     -0.154775
      3 C3         25.3416  111.1068   38.4366 TD             0 LIG     -0.154775
      4 C4         23.9122  104.9321   40.8140 TE             0 LIG     -0.154775
      5 C5         23.1036  110.2129   38.3884 TF             0 LIG     -0.216337
      6 C6         22.2093  106.3508   39.8676 TH             0 LIG     -0.216337
      7 C7         25.8461  109.8276   38.2328 TI             0 LIG     -0.195515
      8 C8         24.8357  105.4600   39.9189 TJ             0 LIG     -0.195515
      9 C9         23.5800  108.9057   38.1569 TK             0 LIG     0.088793
     10 C10        23.1155  106.8934   38.9311 TN             0 LIG     0.088793
     11 C11        24.9824  108.7368   38.1083 TO             0 LIG     0.114550
     12 C12        24.4509  106.4363   38.9967 TP             0 LIG     0.114550
     13 C13        21.4129  107.7911   37.2228 TQ             0 LIG     -0.109988
     14 N1         22.7127  107.8093   37.9269 TV             0 LIG     -0.133727
     15 S1         25.6905  107.1380   37.9744 TW             0 LIG     -0.244806
     16 H1         23.5712  112.2867   38.6974 TX             0 LIG     0.151374
     17 H2         21.8795  104.9861   41.4932 TY             0 LIG     0.151374
     18 H3         26.0144  111.9452   38.5410 TZ             0 LIG     0.151374
     19 H4         24.2173  104.1826   41.5293 UB             0 LIG     0.151374
     20 H5         22.0524  110.4302   38.4680 UC             0 LIG     0.152365
     21 H6         21.1749  106.6531   39.8974 UD             0 LIG     0.152365
     22 H7         26.9162  109.6821   38.1933 UF             0 LIG     0.161016
     23 H8         25.8612  105.1214   39.9570 UG             0 LIG     0.161016
     24 H9         21.3593  106.8988   36.5973 UH             0 LIG     0.097461
     25 H10        21.3904  108.5906   36.4803 UJ             0 LIG     0.097461
     26 H11        20.5735  107.8544   37.9152 UK             0 LIG     0.097461
@<TRIPOS>BOND
        1  1  3  2
        2  1  5  1
        3  1  16  1
        4  2  4  2
        5  2  6  1
        6  2  17  1
        7  3  7  1
        8  3  18  1
        9  4  8  1
        10  4  19  1
        11  5  9  2
        12  5  20  1
        13  6  10  2
        14  6  21  1
        15  7  11  2
        16  7  22  1
        17  8  12  2
        18  8  23  1
        19  9  11  1
        20  9  14  1
        21  10  12  1
        22  10  14  1
        23  11  15  1
        24  12  15  1
        25  13  14  1
        26  13  24  1
        27  13  25  1
        28  13  26  1
@<TRIPOS>SUBSTRUCTURE
       1 LIG             1 RESIDUE    0 **** ROOT      0
