@<TRIPOS>MOLECULE
LIG
26 28
SMALL
USER_CHARGES
@<TRIPOS>ATOM
      1 C1         27.6252  109.0912   38.9904 TA             0 LIG     -0.154775
      2 C2         28.4110  112.5004   44.2842 TB             0 LIG     -0.154775
      3 C3         26.3135  109.4828   38.7534 TD             0 LIG     -0.154775
      4 C4         27.1330  113.0452   44.2973 TE             0 LIG     -0.154775
      5 C5         28.5106  109.9638   39.6204 TF             0 LIG     -0.216337
      6 C6         29.0238  112.1898   43.0719 TH             0 LIG     -0.216337
      7 C7         25.8859  110.7389   39.1679 TI             0 LIG     -0.195515
      8 C8         26.4646  113.2593   43.0972 TJ             0 LIG     -0.195515
      9 C9         28.1171  111.2541   40.0324 TK             0 LIG     0.088793
     10 C10        28.3825  112.4130   41.8344 TN             0 LIG     0.088793
     11 C11        26.7674  111.6107   39.8116 TO             0 LIG     0.114550
     12 C12        27.0713  112.9377   41.8807 TP             0 LIG     0.114550
     13 C13        30.4504  112.4312   40.2788 TQ             0 LIG     -0.109988
     14 N1         29.0270  112.1844   40.5926 TV             0 LIG     -0.133727
     15 S1         26.1293  113.1288   40.4144 TW             0 LIG     -0.244806
     16 H1         27.9593  108.1112   38.6828 TX             0 LIG     0.151374
     17 H2         28.9316  112.3233   45.2138 TY             0 LIG     0.151374
     18 H3         25.6252  108.8094   38.2642 TZ             0 LIG     0.151374
     19 H4         26.6560  113.2894   45.2351 UB             0 LIG     0.151374
     20 H5         29.5111  109.5975   39.7732 UC             0 LIG     0.152365
     21 H6         30.0190  111.7794   43.1296 UD             0 LIG     0.152365
     22 H7         24.8568  111.0262   39.0064 UF             0 LIG     0.161016
     23 H8         25.4609  113.6592   43.1159 UG             0 LIG     0.161016
     24 H9         31.0154  112.4892   41.2103 UH             0 LIG     0.097461
     25 H10        30.5651  113.4407   39.8804 UJ             0 LIG     0.097461
     26 H11        30.8552  111.6780   39.6029 UK             0 LIG     0.097461
@<TRIPOS>BOND
        1  1  3  2
        2  1  5  1
        3  1  16  1
        4  2  4  2
        5  2  6  1
        6  2  17  1
        7  3  7  1
        8  3  18  1
        9  4  8  1
        10  4  19  1
        11  5  9  2
        12  5  20  1
        13  6  10  2
        14  6  21  1
        15  7  11  2
        16  7  22  1
        17  8  12  2
        18  8  23  1
        19  9  11  1
        20  9  14  1
        21  10  12  1
        22  10  14  1
        23  11  15  1
        24  12  15  1
        25  13  14  1
        26  13  24  1
        27  13  25  1
        28  13  26  1
@<TRIPOS>SUBSTRUCTURE
       1 LIG             1 RESIDUE    0 **** ROOT      0
