@<TRIPOS>MOLECULE
LIG
26 28
SMALL
USER_CHARGES
@<TRIPOS>ATOM
      1 C1         27.8141  113.8871   43.8551 TA             0 LIG     -0.154775
      2 C2         24.9246  110.9784   39.1031 TB             0 LIG     -0.154775
      3 C3         28.5096  112.7748   44.3121 TD             0 LIG     -0.154775
      4 C4         25.4783  109.7263   39.3397 TE             0 LIG     -0.154775
      5 C5         27.5338  114.0250   42.4969 TF             0 LIG     -0.216337
      6 C6         25.6526  112.1293   39.3979 TH             0 LIG     -0.216337
      7 C7         28.9033  111.7925   43.4107 TI             0 LIG     -0.195515
      8 C8         26.7519  109.6304   39.8890 TJ             0 LIG     -0.195515
      9 C9         27.9393  113.0597   41.5517 TK             0 LIG     0.088793
     10 C10        26.9557  112.0688   39.9371 TN             0 LIG     0.088793
     11 C11        28.6122  111.9213   42.0505 TO             0 LIG     0.114550
     12 C12        27.4796  110.7824   40.1969 TP             0 LIG     0.114550
     13 C13        27.8097  114.4382   39.3127 TQ             0 LIG     -0.109988
     14 N1         27.7407  113.2281   40.1591 TV             0 LIG     -0.133727
     15 S1         29.0313  110.5891   40.9899 TW             0 LIG     -0.244806
     16 H1         27.4936  114.6469   44.5527 TX             0 LIG     0.151374
     17 H2         23.9320  111.0591   38.6851 TY             0 LIG     0.151374
     18 H3         28.7296  112.6657   45.3639 TZ             0 LIG     0.151374
     19 H4         24.9177  108.8320   39.1102 UB             0 LIG     0.151374
     20 H5         26.9920  114.9098   42.2107 UC             0 LIG     0.152365
     21 H6         25.1708  113.0692   39.1818 UD             0 LIG     0.152365
     22 H7         29.4187  110.9161   43.7767 UF             0 LIG     0.161016
     23 H8         27.1662  108.6538   40.0944 UG             0 LIG     0.161016
     24 H9         28.5896  114.3034   38.5618 UH             0 LIG     0.097461
     25 H10        28.2011  115.2707   39.8998 UJ             0 LIG     0.097461
     26 H11        26.8462  114.6753   38.8615 UK             0 LIG     0.097461
@<TRIPOS>BOND
        1  1  3  2
        2  1  5  1
        3  1  16  1
        4  2  4  2
        5  2  6  1
        6  2  17  1
        7  3  7  1
        8  3  18  1
        9  4  8  1
        10  4  19  1
        11  5  9  2
        12  5  20  1
        13  6  10  2
        14  6  21  1
        15  7  11  2
        16  7  22  1
        17  8  12  2
        18  8  23  1
        19  9  11  1
        20  9  14  1
        21  10  12  1
        22  10  14  1
        23  11  15  1
        24  12  15  1
        25  13  14  1
        26  13  24  1
        27  13  25  1
        28  13  26  1
@<TRIPOS>SUBSTRUCTURE
       1 LIG             1 RESIDUE    0 **** ROOT      0
