@<TRIPOS>MOLECULE
LIG
26 28
SMALL
USER_CHARGES
@<TRIPOS>ATOM
      1 C1         29.3122  113.7596   36.2861 TA             0 LIG     -0.154775
      2 C2         25.6417  111.4649   40.9036 TB             0 LIG     -0.154775
      3 C3         30.2455  112.7547   36.5075 TD             0 LIG     -0.154775
      4 C4         26.5580  110.4513   41.1553 TE             0 LIG     -0.154775
      5 C5         28.5653  114.2644   37.3489 TF             0 LIG     -0.216337
      6 C6         26.0844  112.7118   40.4668 TH             0 LIG     -0.216337
      7 C7         30.4443  112.2736   37.7965 TI             0 LIG     -0.195515
      8 C8         27.9164  110.6953   40.9878 TJ             0 LIG     -0.195515
      9 C9         28.7240  113.7826   38.6650 TK             0 LIG     0.088793
     10 C10        27.4541  112.9879   40.2666 TN             0 LIG     0.088793
     11 C11        29.7067  112.7868   38.8660 TO             0 LIG     0.114550
     12 C12        28.3643  111.9481   40.5617 TP             0 LIG     0.114550
     13 C13        27.1786  115.5021   39.8344 TQ             0 LIG     -0.109988
     14 N1         27.9113  114.2217   39.7392 TV             0 LIG     -0.133727
     15 S1         30.0944  112.2202   40.4797 TW             0 LIG     -0.244806
     16 H1         29.1632  114.1470   35.2889 TX             0 LIG     0.151374
     17 H2         24.5858  111.2840   41.0408 TY             0 LIG     0.151374
     18 H3         30.8249  112.3604   35.6857 TZ             0 LIG     0.151374
     19 H4         26.2182  109.4828   41.4917 UB             0 LIG     0.151374
     20 H5         27.8604  115.0412   37.1079 UC             0 LIG     0.152365
     21 H6         25.3229  113.4518   40.2797 UD             0 LIG     0.152365
     22 H7         31.1921  111.5122   37.9664 UF             0 LIG     0.161016
     23 H8         28.6252  109.9106   41.2102 UG             0 LIG     0.161016
     24 H9         26.9717  115.8696   38.8282 UH             0 LIG     0.097461
     25 H10        27.8441  116.2737   40.2254 UJ             0 LIG     0.097461
     26 H11        26.2698  115.4083   40.4288 UK             0 LIG     0.097461
@<TRIPOS>BOND
        1  1  3  2
        2  1  5  1
        3  1  16  1
        4  2  4  2
        5  2  6  1
        6  2  17  1
        7  3  7  1
        8  3  18  1
        9  4  8  1
        10  4  19  1
        11  5  9  2
        12  5  20  1
        13  6  10  2
        14  6  21  1
        15  7  11  2
        16  7  22  1
        17  8  12  2
        18  8  23  1
        19  9  11  1
        20  9  14  1
        21  10  12  1
        22  10  14  1
        23  11  15  1
        24  12  15  1
        25  13  14  1
        26  13  24  1
        27  13  25  1
        28  13  26  1
@<TRIPOS>SUBSTRUCTURE
       1 LIG             1 RESIDUE    0 **** ROOT      0
