@<TRIPOS>MOLECULE
LIG
26 28
SMALL
USER_CHARGES
@<TRIPOS>ATOM
      1 C1         26.3011  108.9039   41.3001 TA             0 LIG     -0.154775
      2 C2         27.1274  113.7962   37.3706 TB             0 LIG     -0.154775
      3 C3         25.1533  109.4923   41.8161 TD             0 LIG     -0.154775
      4 C4         25.9880  114.4151   37.8696 TE             0 LIG     -0.154775
      5 C5         27.3574  109.7010   40.8629 TF             0 LIG     -0.216337
      6 C6         27.9135  113.0054   38.2060 TH             0 LIG     -0.216337
      7 C7         25.0753  110.8768   41.9135 TI             0 LIG     -0.195515
      8 C8         25.6498  114.2561   39.2087 TJ             0 LIG     -0.195515
      9 C9         27.3022  111.1091   40.9247 TK             0 LIG     0.088793
     10 C10        27.5886  112.8058   39.5651 TN             0 LIG     0.088793
     11 C11        26.1377  111.6780   41.4884 TO             0 LIG     0.114550
     12 C12        26.4426  113.4737   40.0519 TP             0 LIG     0.114550
     13 C13        29.7458  111.5673   40.1955 TQ             0 LIG     -0.109988
     14 N1         28.3289  111.9344   40.4032 TV             0 LIG     -0.133727
     15 S1         26.0203  113.4078   41.7523 TW             0 LIG     -0.244806
     16 H1         26.3730  107.8282   41.2348 TX             0 LIG     0.151374
     17 H2         27.4002  113.9236   36.3333 TY             0 LIG     0.151374
     18 H3         24.3324  108.8774   42.1545 TZ             0 LIG     0.151374
     19 H4         25.3750  115.0269   37.2242 UB             0 LIG     0.151374
     20 H5         28.2162  109.1812   40.4747 UC             0 LIG     0.152365
     21 H6         28.7782  112.5451   37.7556 UD             0 LIG     0.152365
     22 H7         24.1914  111.3270   42.3423 UF             0 LIG     0.161016
     23 H8         24.7767  114.7612   39.5964 UG             0 LIG     0.161016
     24 H9         30.0617  111.9107   39.2094 UH             0 LIG     0.097461
     25 H10        29.8299  110.4837   40.0963 UJ             0 LIG     0.097461
     26 H11        30.3873  111.9550   40.9869 UK             0 LIG     0.097461
@<TRIPOS>BOND
        1  1  3  2
        2  1  5  1
        3  1  16  1
        4  2  4  2
        5  2  6  1
        6  2  17  1
        7  3  7  1
        8  3  18  1
        9  4  8  1
        10  4  19  1
        11  5  9  2
        12  5  20  1
        13  6  10  2
        14  6  21  1
        15  7  11  2
        16  7  22  1
        17  8  12  2
        18  8  23  1
        19  9  11  1
        20  9  14  1
        21  10  12  1
        22  10  14  1
        23  11  15  1
        24  12  15  1
        25  13  14  1
        26  13  24  1
        27  13  25  1
        28  13  26  1
@<TRIPOS>SUBSTRUCTURE
       1 LIG             1 RESIDUE    0 **** ROOT      0
