PHM0appS
                    3D
 Schrodinger Suite 2019-4.
 26 28  0  0  1  0            999 V2000
   26.3011  108.9039   41.3001 C   0  0  0  0  0  0
   27.1274  113.7962   37.3706 C   0  0  0  0  0  0
   25.1533  109.4923   41.8161 C   0  0  0  0  0  0
   25.9880  114.4151   37.8696 C   0  0  0  0  0  0
   27.3574  109.7010   40.8629 C   0  0  0  0  0  0
   27.9135  113.0054   38.2060 C   0  0  0  0  0  0
   25.0753  110.8768   41.9135 C   0  0  0  0  0  0
   25.6498  114.2561   39.2087 C   0  0  0  0  0  0
   27.3022  111.1091   40.9247 C   0  0  0  0  0  0
   27.5886  112.8058   39.5651 C   0  0  0  0  0  0
   26.1377  111.6780   41.4884 C   0  0  0  0  0  0
   26.4426  113.4737   40.0519 C   0  0  0  0  0  0
   29.7458  111.5673   40.1955 C   0  0  0  0  0  0
   28.3289  111.9344   40.4032 N   0  0  0  0  0  0
   26.0203  113.4078   41.7523 S   0  0  0  0  0  0
   26.3730  107.8282   41.2348 H   0  0  0  0  0  0
   27.4002  113.9236   36.3333 H   0  0  0  0  0  0
   24.3324  108.8774   42.1545 H   0  0  0  0  0  0
   25.3750  115.0269   37.2242 H   0  0  0  0  0  0
   28.2162  109.1812   40.4747 H   0  0  0  0  0  0
   28.7782  112.5451   37.7556 H   0  0  0  0  0  0
   24.1914  111.3270   42.3423 H   0  0  0  0  0  0
   24.7767  114.7612   39.5964 H   0  0  0  0  0  0
   30.0617  111.9107   39.2094 H   0  0  0  0  0  0
   29.8299  110.4837   40.0963 H   0  0  0  0  0  0
   30.3873  111.9550   40.9869 H   0  0  0  0  0  0
  1  3  2  0  0  0
  1  5  1  0  0  0
  1 16  1  0  0  0
  2  4  2  0  0  0
  2  6  1  0  0  0
  2 17  1  0  0  0
  3  7  1  0  0  0
  3 18  1  0  0  0
  4  8  1  0  0  0
  4 19  1  0  0  0
  5  9  2  0  0  0
  5 20  1  0  0  0
  6 10  2  0  0  0
  6 21  1  0  0  0
  7 11  2  0  0  0
  7 22  1  0  0  0
  8 12  2  0  0  0
  8 23  1  0  0  0
  9 11  1  0  0  0
  9 14  1  0  0  0
 10 12  1  0  0  0
 10 14  1  0  0  0
 11 15  1  0  0  0
 12 15  1  0  0  0
 13 14  1  0  0  0
 13 24  1  0  0  0
 13 25  1  0  0  0
 13 26  1  0  0  0
M  END
> <s_m_entry_id>
191

> <s_m_Source_Path>
/nfs/egallicchio/Dropbox/sims/SAMPL9

> <s_m_Source_File>
PMZ.mol2

> <i_m_Source_File_Index>
1

> <r_epik_Ionization_Penalty>
  0.0034

> <r_epik_State_Penalty>
  0.0024

> <i_epik_Tot_Q>
1

> <i_f3d_flags>
0

> <s_m_job_name>
ligprep_4

$$$$
