PHM0assR
                    3D
 Schrodinger Suite 2019-4.
 26 28  0  0  1  0            999 V2000
   23.9684  111.2971   38.5255 C   0  0  0  0  0  0
   22.5992  105.3859   40.7941 C   0  0  0  0  0  0
   25.3416  111.1068   38.4366 C   0  0  0  0  0  0
   23.9122  104.9321   40.8140 C   0  0  0  0  0  0
   23.1036  110.2129   38.3884 C   0  0  0  0  0  0
   22.2093  106.3508   39.8676 C   0  0  0  0  0  0
   25.8461  109.8276   38.2328 C   0  0  0  0  0  0
   24.8357  105.4600   39.9189 C   0  0  0  0  0  0
   23.5800  108.9057   38.1569 C   0  0  0  0  0  0
   23.1155  106.8934   38.9311 C   0  0  0  0  0  0
   24.9824  108.7368   38.1083 C   0  0  0  0  0  0
   24.4509  106.4363   38.9967 C   0  0  0  0  0  0
   21.4129  107.7911   37.2228 C   0  0  0  0  0  0
   22.7127  107.8093   37.9269 N   0  0  0  0  0  0
   25.6905  107.1380   37.9744 S   0  0  0  0  0  0
   23.5712  112.2867   38.6974 H   0  0  0  0  0  0
   21.8795  104.9861   41.4932 H   0  0  0  0  0  0
   26.0144  111.9452   38.5410 H   0  0  0  0  0  0
   24.2173  104.1826   41.5293 H   0  0  0  0  0  0
   22.0524  110.4302   38.4680 H   0  0  0  0  0  0
   21.1749  106.6531   39.8974 H   0  0  0  0  0  0
   26.9162  109.6821   38.1933 H   0  0  0  0  0  0
   25.8612  105.1214   39.9570 H   0  0  0  0  0  0
   21.3593  106.8988   36.5973 H   0  0  0  0  0  0
   21.3904  108.5906   36.4803 H   0  0  0  0  0  0
   20.5735  107.8544   37.9152 H   0  0  0  0  0  0
  1  3  2  0  0  0
  1  5  1  0  0  0
  1 16  1  0  0  0
  2  4  2  0  0  0
  2  6  1  0  0  0
  2 17  1  0  0  0
  3  7  1  0  0  0
  3 18  1  0  0  0
  4  8  1  0  0  0
  4 19  1  0  0  0
  5  9  2  0  0  0
  5 20  1  0  0  0
  6 10  2  0  0  0
  6 21  1  0  0  0
  7 11  2  0  0  0
  7 22  1  0  0  0
  8 12  2  0  0  0
  8 23  1  0  0  0
  9 11  1  0  0  0
  9 14  1  0  0  0
 10 12  1  0  0  0
 10 14  1  0  0  0
 11 15  1  0  0  0
 12 15  1  0  0  0
 13 14  1  0  0  0
 13 24  1  0  0  0
 13 25  1  0  0  0
 13 26  1  0  0  0
M  END
> <s_m_entry_id>
194

> <s_m_Source_Path>
/nfs/egallicchio/Dropbox/sims/SAMPL9

> <s_m_Source_File>
PMZ.mol2

> <i_m_Source_File_Index>
1

> <r_epik_Ionization_Penalty>
  0.0034

> <r_epik_State_Penalty>
  0.0024

> <i_epik_Tot_Q>
1

> <i_f3d_flags>
0

> <s_m_job_name>
ligprep_4

$$$$
