@<TRIPOS>MOLECULE
LIG
26 28
SMALL
USER_CHARGES
@<TRIPOS>ATOM
      1 C1         23.9096  110.3039   38.5002 TA             0 LIG     -0.154775
      2 C2         24.5736  104.4030   36.3097 TB             0 LIG     -0.154775
      3 C3         25.2847  110.4139   38.6651 TD             0 LIG     -0.154775
      4 C4         25.9517  104.4778   36.4689 TE             0 LIG     -0.154775
      5 C5         23.2833  109.0705   38.6699 TF             0 LIG     -0.216337
      6 C6         23.7327  105.0847   37.1871 TH             0 LIG     -0.216337
      7 C7         26.0258  109.2930   39.0211 TI             0 LIG     -0.195515
      8 C8         26.4834  105.2191   37.5180 TJ             0 LIG     -0.195515
      9 C9         24.0076  107.9082   39.0073 TK             0 LIG     0.088793
     10 C10        24.2388  105.8630   38.2504 TN             0 LIG     0.088793
     11 C11        25.3991  108.0582   39.2048 TO             0 LIG     0.114550
     12 C12        25.6428  105.8938   38.4066 TP             0 LIG     0.114550
     13 C13        21.9737  106.3419   39.3570 TQ             0 LIG     -0.109988
     14 N1         23.3996  106.6316   39.0957 TV             0 LIG     -0.133727
     15 S1         26.3758  106.7161   39.7706 TW             0 LIG     -0.244806
     16 H1         23.3267  111.1743   38.2371 TX             0 LIG     0.151374
     17 H2         24.1545  103.8212   35.5020 TY             0 LIG     0.151374
     18 H3         25.7732  111.3681   38.5330 TZ             0 LIG     0.151374
     19 H4         26.6065  103.9526   35.7892 UB             0 LIG     0.151374
     20 H5         22.2165  109.0555   38.5275 UC             0 LIG     0.152365
     21 H6         22.6742  104.9943   37.0035 UD             0 LIG     0.152365
     22 H7         27.0908  109.3915   39.1758 UF             0 LIG     0.161016
     23 H8         27.5552  105.2519   37.6514 UG             0 LIG     0.161016
     24 H9         21.7525  106.5577   40.4034 UH             0 LIG     0.097461
     25 H10        21.8065  105.2646   39.3071 UJ             0 LIG     0.097461
     26 H11        21.3163  106.8881   38.6805 UK             0 LIG     0.097461
@<TRIPOS>BOND
        1  1  3  2
        2  1  5  1
        3  1  16  1
        4  2  4  2
        5  2  6  1
        6  2  17  1
        7  3  7  1
        8  3  18  1
        9  4  8  1
        10  4  19  1
        11  5  9  2
        12  5  20  1
        13  6  10  2
        14  6  21  1
        15  7  11  2
        16  7  22  1
        17  8  12  2
        18  8  23  1
        19  9  11  1
        20  9  14  1
        21  10  12  1
        22  10  14  1
        23  11  15  1
        24  12  15  1
        25  13  14  1
        26  13  24  1
        27  13  25  1
        28  13  26  1
@<TRIPOS>SUBSTRUCTURE
       1 LIG             1 RESIDUE    0 **** ROOT      0
