CPZ1assR
                    3D
 Structure written by MMmdl.
 41 43  0  0  1  0            999 V2000
   32.3623  111.2585   44.3895 C   0  0  0  0  0  0
   32.7573  111.7276   43.1245 C   0  0  0  0  0  0
   32.0575  109.8959   44.5729 C   0  0  0  0  0  0
   32.8592  110.8281   42.0483 C   0  0  0  0  0  0
   34.3101  106.1873   41.2539 C   0  0  0  0  0  0
   34.7981  105.0841   41.9773 C   0  0  0  0  0  0
   33.3381  105.6751   43.8376 C   0  0  0  0  0  0
   32.1370  108.9803   43.4946 C   0  0  0  0  0  0
   32.8303  106.7847   43.1200 C   0  0  0  0  0  0
   32.5647  109.4627   42.2311 C   0  0  0  0  0  0
   33.3360  107.0344   41.8184 C   0  0  0  0  0  0
   34.3098  104.8298   43.2703 C   0  0  0  0  0  0
   30.7612  104.3856   39.9045 C   0  0  0  0  0  0
   28.5809  105.3609   40.4919 C   0  0  0  0  0  0
   29.6450  106.5748   42.8608 C   0  0  0  0  0  0
   30.4870  107.1239   44.0308 C   0  0  0  0  0  0
   30.4853  105.5742   42.0484 C   0  0  0  0  0  0
   31.8301  107.6141   43.6745 N   0  0  0  0  0  0
   30.0533  105.4694   40.6326 N   0  3  0  0  0  0
   32.7464  108.3833   40.8442 S   0  0  0  0  0  0
   34.8859  103.4711   44.1614 Cl  0  0  0  0  0  0
   32.3074  111.9430   45.2243 H   0  0  0  0  0  0
   32.9999  112.7715   42.9825 H   0  0  0  0  0  0
   31.7959  109.5646   45.5655 H   0  0  0  0  0  0
   33.1823  111.1834   41.0807 H   0  0  0  0  0  0
   34.6871  106.3882   40.2612 H   0  0  0  0  0  0
   35.5486  104.4383   41.5439 H   0  0  0  0  0  0
   33.0078  105.4607   44.8409 H   0  0  0  0  0  0
   30.6069  103.4177   40.3870 H   0  0  0  0  0  0
   31.8359  104.5772   39.8720 H   0  0  0  0  0  0
   30.4109  104.3078   38.8757 H   0  0  0  0  0  0
   28.2113  104.4423   40.9507 H   0  0  0  0  0  0
   28.2886  105.3538   39.4419 H   0  0  0  0  0  0
   28.0806  106.2049   40.9689 H   0  0  0  0  0  0
   28.7629  106.0681   43.2521 H   0  0  0  0  0  0
   29.2548  107.3816   42.2440 H   0  0  0  0  0  0
   29.8740  107.9061   44.4711 H   0  0  0  0  0  0
   30.5996  106.4008   44.8466 H   0  0  0  0  0  0
   31.5315  105.8869   42.0729 H   0  0  0  0  0  0
   30.4701  104.6016   42.5456 H   0  0  0  0  0  0
   30.3239  106.3364   40.1821 H   0  0  0  0  0  0
  1  2  2  0  0  0
  1  3  1  0  0  0
  1 22  1  0  0  0
  2  4  1  0  0  0
  2 23  1  0  0  0
  3  8  2  0  0  0
  3 24  1  0  0  0
  4 10  2  0  0  0
  4 25  1  0  0  0
  5  6  2  0  0  0
  5 11  1  0  0  0
  5 26  1  0  0  0
  6 12  1  0  0  0
  6 27  1  0  0  0
  7  9  1  0  0  0
  7 12  2  0  0  0
  7 28  1  0  0  0
  8 10  1  0  0  0
  8 18  1  0  0  0
  9 11  2  0  0  0
  9 18  1  0  0  0
 10 20  1  0  0  0
 11 20  1  0  0  0
 12 21  1  0  0  0
 13 19  1  0  0  0
 13 29  1  0  0  0
 13 30  1  0  0  0
 13 31  1  0  0  0
 14 19  1  0  0  0
 14 32  1  0  0  0
 14 33  1  0  0  0
 14 34  1  0  0  0
 15 16  1  0  0  0
 15 17  1  0  0  0
 15 35  1  0  0  0
 15 36  1  0  0  0
 16 18  1  0  0  0
 16 37  1  0  0  0
 16 38  1  0  0  0
 17 19  1  0  0  0
 17 39  1  0  0  0
 17 40  1  0  0  0
 19 41  1  0  0  0
M  CHG  1  19   1
M  END
> <s_m_entry_id>
507

> <s_m_entry_name>
CPZ1assR.1

> <s_m_Source_Path>
/home/emilio/Dropbox/SAMPL9-eglab/mCD/ligsdfs

> <s_m_Source_File>
CPZ1assR.sdf

> <i_m_Source_File_Index>
1

> <i_lp_mmshare_version>
47013

> <s_epik_input>
W2NIXTFbY0hdW2NIXVtjSF1jKGMxMilTYzNjKFtjSF1jKENsKVtjSF1bY0hdMylOMltDSDJdW0NIMl1bQ0gyXU4oW0NIM10pW0NIM10=

> <s_epik_cmdline>
J2VwaWtfcHl0aG9uJywgJy1waHQnLCAnNC4wJywgJy1waCcsICc3LjQnLCAnLXRuJywgJzgnLCAnLW1hJywgJzIwMCcsICctaW1hZScsICc8aW5maWxlLm1hZT4nLCAnLW9tYWUnLCAnPG91dGZpbGUubWFlPic=

> <r_epik_Ionization_Penalty>
  0.0036

> <r_epik_Ionization_Penalty_Charging>
  0.0036

> <r_epik_Ionization_Penalty_Neutral>
  0.0000

> <r_epik_State_Penalty>
  0.0025

> <r_epik_Charging_Adjusted_Penalty>
0.00607902823301679

> <i_epik_Tot_Q>
1

> <i_epik_Tot_abs_Q>
1

> <s_lp_Force_Field>
OPLS3e

> <r_lp_Energy>
54.329832

> <b_lp_Chiralities_Consistent>
1

> <s_lp_Variant>
CPZ-1

> <s_m_job_name>
ligprep_4

> <chiral flag>
1

> <version>
0

> <i_f3d_flags>
0

> <b_m_Mark>
1

> <s_m_subgroup_title>
bCDq->ssR d_copy1

> <s_m_subgroupid>
bCDq_copy1->imported_structures_copy1

> <b_m_subgroup_collapsed>
0

$$$$
