@<TRIPOS>MOLECULE
LIG
41 43
SMALL
USER_CHARGES
@<TRIPOS>ATOM
      1 C1         32.3623  111.2585   44.3895 AA             0 LIG     -0.148984
      2 C2         32.7573  111.7276   43.1245 AB             0 LIG     -0.148984
      3 C3         32.0575  109.8959   44.5729 AD             0 LIG     -0.216162
      4 C4         32.8592  110.8281   42.0483 AE             0 LIG     -0.191448
      5 C5         34.3101  106.1873   41.2539 AF             0 LIG     -0.191448
      6 C6         34.7981  105.0841   41.9773 AH             0 LIG     -0.201273
      7 C7         33.3381  105.6751   43.8376 AI             0 LIG     -0.282378
      8 C8         32.1370  108.9803   43.4946 AJ             0 LIG     0.090825
      9 C9         32.8303  106.7847   43.1200 AK             0 LIG     0.090825
     10 C10        32.5647  109.4627   42.2311 AN             0 LIG     0.113170
     11 C11        33.3360  107.0344   41.8184 AO             0 LIG     0.113170
     12 C12        34.3098  104.8298   43.2703 AP             0 LIG     0.139586
     13 C13        30.7612  104.3856   39.9045 AQ             0 LIG     -0.327670
     14 C14        28.5809  105.3609   40.4919 AV             0 LIG     -0.327670
     15 C15        29.6450  106.5748   42.8608 AW             0 LIG     -0.018552
     16 C16        30.4870  107.1239   44.0308 AX             0 LIG     0.030051
     17 C17        30.4853  105.5742   42.0484 AY             0 LIG     0.155353
     18 N1         31.8301  107.6141   43.6745 AZ             0 LIG     -0.186524
     19 N2         30.0533  105.4694   40.6326 BB             0 LIG     0.134459
     20 S1         32.7464  108.3833   40.8442 BC             0 LIG     -0.184949
     21 CL1        34.8859  103.4711   44.1614 BD             0 LIG     -0.163674
     22 H1         32.3074  111.9430   45.2243 BF             0 LIG     0.167367
     23 H2         32.9999  112.7715   42.9825 BG             0 LIG     0.167367
     24 H3         31.7959  109.5646   45.5655 BH             0 LIG     0.144463
     25 H4         33.1823  111.1834   41.0807 BJ             0 LIG     0.182657
     26 H5         34.6871  106.3882   40.2612 BK             0 LIG     0.182657
     27 H6         35.5486  104.4383   41.5439 BL             0 LIG     0.185066
     28 H7         33.0078  105.4607   44.8409 BM             0 LIG     0.159917
     29 H8         30.6069  103.4177   40.3870 BN             0 LIG     0.163775
     30 H9         31.8359  104.5772   39.8720 BO             0 LIG     0.163775
     31 H10        30.4109  104.3078   38.8757 BP             0 LIG     0.163775
     32 H11        28.2113  104.4423   40.9507 BQ             0 LIG     0.163775
     33 H12        28.2886  105.3538   39.4419 BS             0 LIG     0.163775
     34 H13        28.0806  106.2049   40.9689 BT             0 LIG     0.163775
     35 H14        28.7629  106.0681   43.2521 BU             0 LIG     0.042423
     36 H15        29.2548  107.3816   42.2440 BV             0 LIG     0.042423
     37 H16        29.8740  107.9061   44.4711 BW             0 LIG     0.092460
     38 H17        30.5996  106.4008   44.8466 BX             0 LIG     0.092460
     39 H18        31.5315  105.8869   42.0729 BY             0 LIG     0.021392
     40 H19        30.4701  104.6016   42.5456 BZ             0 LIG     0.021392
     41 H20        30.3239  106.3364   40.1821 CB             0 LIG     0.237587
@<TRIPOS>BOND
        1  1  2  2
        2  1  3  1
        3  1  22  1
        4  2  4  1
        5  2  23  1
        6  3  8  2
        7  3  24  1
        8  4  10  2
        9  4  25  1
        10  5  6  1
        11  5  11  2
        12  5  26  1
        13  6  12  2
        14  6  27  1
        15  7  9  2
        16  7  12  1
        17  7  28  1
        18  8  10  1
        19  8  18  1
        20  9  11  1
        21  9  18  1
        22  10  20  1
        23  11  20  1
        24  12  21  1
        25  13  19  1
        26  13  29  1
        27  13  30  1
        28  13  31  1
        29  14  19  1
        30  14  32  1
        31  14  33  1
        32  14  34  1
        33  15  16  1
        34  15  17  1
        35  15  35  1
        36  15  36  1
        37  16  18  1
        38  16  37  1
        39  16  38  1
        40  17  19  1
        41  17  39  1
        42  17  40  1
        43  19  41  1
@<TRIPOS>SUBSTRUCTURE
       1 LIG             1 RESIDUE    0 **** ROOT      0

