@<TRIPOS>MOLECULE
LIG
41 43
SMALL
USER_CHARGES
@<TRIPOS>ATOM
      1 C1         32.5483  111.2130   44.4670 AA             0 LIG     -0.150100
      2 C2         34.3107  104.8219   43.2802 AB             0 LIG     -0.150100
      3 C3         32.9440  111.6975   43.2008 AD             0 LIG     -0.150100
      4 C4         34.7744  105.0539   41.9681 AE             0 LIG     -0.150100
      5 C5         32.1056  109.8860   44.6232 AF             0 LIG     -0.220762
      6 C6         33.3216  105.6516   43.8488 AH             0 LIG     -0.220762
      7 C7         32.9258  110.8405   42.0824 AI             0 LIG     -0.190531
      8 C8         34.2783  106.1402   41.2255 AJ             0 LIG     -0.190531
      9 C9         32.1092  109.0074   43.5084 AK             0 LIG     0.084657
     10 C10        32.8063  106.7294   43.1010 AN             0 LIG     0.084657
     11 C11        32.5458  109.4979   42.2478 AO             0 LIG     0.115853
     12 C12        33.3136  106.9877   41.8017 AP             0 LIG     0.115853
     13 C13        28.3070  106.1989   44.4086 AQ             0 LIG     -0.353988
     14 C14        28.1645  105.5116   41.7706 AV             0 LIG     -0.185375
     15 C15        30.5578  105.5135   41.8147 AW             0 LIG     -0.185375
     16 C16        30.6351  107.1321   44.2912 AX             0 LIG     0.002465
     17 C17        29.2835  106.9366   43.4865 AY             1 LIG     0.085935
     18 N1         31.8520  107.6228   43.6211 AZ             0 LIG     -0.190232
     19 N2         29.3511  106.3336   42.1045 BB             0 LIG     0.109280
     20 S1         32.7238  108.3825   40.8878 BC             0 LIG     -0.188456
     21 H1         32.5914  111.8693   45.3266 BD             0 LIG     0.166423
     22 H2         34.7271  104.0185   43.8697 BF             0 LIG     0.166423
     23 H3         33.2873  112.7157   43.0881 BG             0 LIG     0.166423
     24 H4         35.5349  104.4151   41.5393 BH             0 LIG     0.166423
     25 H5         31.8406  109.5424   45.6087 BJ             0 LIG     0.128375
     26 H6         33.0220  105.4900   44.8724 BK             0 LIG     0.128375
     27 H7         33.2326  111.2023   41.1053 BL             0 LIG     0.178440
     28 H8         34.6463  106.3482   40.2240 BM             0 LIG     0.178440
     29 H9         28.2661  106.6521   45.3981 BN             0 LIG     0.122803
     30 H10        28.6004  105.1611   44.5565 BO             0 LIG     0.122803
     31 H11        27.2740  106.2013   44.0515 BP             0 LIG     0.122803
     32 H12        27.8629  104.8184   42.5566 BQ             0 LIG     0.123915
     33 H13        28.2839  104.9499   40.8392 BS             0 LIG     0.123915
     34 H14        27.3085  106.1314   41.6294 BT             0 LIG     0.123915
     35 H15        30.6234  104.6393   42.4804 BU             0 LIG     0.123915
     36 H16        31.4859  106.0789   41.8991 BV             0 LIG     0.123915
     37 H17        30.5444  105.1320   40.7834 BW             0 LIG     0.123915
     38 H18        30.4169  107.8100   45.1235 BX             0 LIG     0.090289
     39 H19        30.9117  106.1876   44.7791 BY             0 LIG     0.090289
     40 H20        28.8537  107.9241   43.3640 BZ             0 LIG     0.141962
     41 H21        29.3587  107.1196   41.4621 CB             0 LIG     0.213953
@<TRIPOS>BOND
        1  1  3  2
        2  1  5  1
        3  1  21  1
        4  2  4  2
        5  2  6  1
        6  2  22  1
        7  3  7  1
        8  3  23  1
        9  4  8  1
        10  4  24  1
        11  5  9  2
        12  5  25  1
        13  6  10  2
        14  6  26  1
        15  7  11  2
        16  7  27  1
        17  8  12  2
        18  8  28  1
        19  9  11  1
        20  9  18  1
        21  10  12  1
        22  10  18  1
        23  11  20  1
        24  12  20  1
        25  13  17  1
        26  13  29  1
        27  13  30  1
        28  13  31  1
        29  14  19  1
        30  14  32  1
        31  14  33  1
        32  14  34  1
        33  15  19  1
        34  15  35  1
        35  15  36  1
        36  15  37  1
        37  16  17  1
        38  16  18  1
        39  16  38  1
        40  16  39  1
        41  17  19  1
        42  17  40  1
        43  19  41  1
@<TRIPOS>SUBSTRUCTURE
       1 LIG             1 RESIDUE    0 **** ROOT      0

