@<TRIPOS>MOLECULE
LIG
41 43
SMALL
USER_CHARGES
@<TRIPOS>ATOM
      1 C1         32.2004  111.2921   44.3687 PA             0 LIG     -0.151978
      2 C2         34.2961  104.8488   43.2671 PB             0 LIG     -0.151978
      3 C3         32.5570  111.7321   43.1051 PD             0 LIG     -0.151978
      4 C4         34.9213  105.1893   42.0337 PE             0 LIG     -0.151978
      5 C5         31.9659  109.9053   44.6233 PF             0 LIG     -0.221382
      6 C6         33.3653  105.6712   43.9129 PH             0 LIG     -0.221382
      7 C7         32.7377  110.7831   42.0845 PI             0 LIG     -0.192007
      8 C8         34.4390  106.2532   41.3311 PJ             0 LIG     -0.192007
      9 C9         32.2055  109.0095   43.5408 PK             0 LIG     0.086899
     10 C10        32.9268  106.7561   43.1726 PN             0 LIG     0.086899
     11 C11        32.4582  109.4380   42.2273 PO             0 LIG     0.115779
     12 C12        33.3873  107.0302   41.8595 PP             0 LIG     0.115779
     13 C13        30.1674  104.3047   40.1688 PQ             0 LIG     -0.319173
     14 C14        28.0376  104.7996   41.4040 PV             0 LIG     -0.319173
     15 C15        29.4420  106.7172   43.1911 PW             0 LIG     -0.018118
     16 C16        30.5497  107.1388   44.1860 PX             0 LIG     0.036275
     17 C17        30.1087  105.8483   42.1200 PY             0 LIG     0.012268
     18 N1         31.8461  107.6068   43.6563 PZ             0 LIG     -0.191498
     19 N2         29.3086  105.4101   40.8792 QB             0 LIG     0.153200
     20 S1         32.7442  108.3716   40.8658 QC             0 LIG     -0.201542
     21 H1         32.0747  111.9736   45.1945 QD             0 LIG     0.160898
     22 H2         34.6511  104.0827   43.9080 QF             0 LIG     0.160898
     23 H3         32.6914  112.8454   42.9455 QG             0 LIG     0.160898
     24 H4         35.5204  104.4224   41.4526 QH             0 LIG     0.160898
     25 H5         31.7627  109.4563   45.5962 QJ             0 LIG     0.134456
     26 H6         33.0001  105.3897   44.8645 QK             0 LIG     0.134456
     27 H7         33.0100  111.2089   41.1085 QL             0 LIG     0.174337
     28 H8         34.7517  106.3918   40.3049 QM             0 LIG     0.174337
     29 H9         30.1200  103.3948   40.8956 QN             0 LIG     0.158404
     30 H10        31.2134  104.5546   40.1218 QO             0 LIG     0.158404
     31 H11        29.6656  104.0499   39.2503 QP             0 LIG     0.158404
     32 H12        27.5782  104.5952   40.4088 QQ             0 LIG     0.158404
     33 H13        27.3502  105.4891   41.9041 QS             0 LIG     0.158404
     34 H14        28.1986  103.7923   41.8882 QT             0 LIG     0.158404
     35 H15        28.6064  106.1230   43.7579 QU             0 LIG     0.041463
     36 H16        28.9168  107.5442   42.8259 QV             0 LIG     0.041463
     37 H17        30.1703  107.9167   44.9071 QW             0 LIG     0.085391
     38 H18        30.7586  106.3060   44.9050 QX             0 LIG     0.085391
     39 H19        30.9687  106.3837   41.6975 QY             0 LIG     0.073022
     40 H20        30.3771  104.9409   42.6310 QZ             0 LIG     0.073022
     41 H21        29.0757  106.2396   40.2308 RB             0 LIG     0.265740
@<TRIPOS>BOND
        1  1  3  2
        2  1  5  1
        3  1  21  1
        4  2  4  2
        5  2  6  1
        6  2  22  1
        7  3  7  1
        8  3  23  1
        9  4  8  1
        10  4  24  1
        11  5  9  2
        12  5  25  1
        13  6  10  2
        14  6  26  1
        15  7  11  2
        16  7  27  1
        17  8  12  2
        18  8  28  1
        19  9  11  1
        20  9  18  1
        21  10  12  1
        22  10  18  1
        23  11  20  1
        24  12  20  1
        25  13  19  1
        26  13  29  1
        27  13  30  1
        28  13  31  1
        29  14  19  1
        30  14  32  1
        31  14  33  1
        32  14  34  1
        33  15  16  1
        34  15  17  1
        35  15  35  1
        36  15  36  1
        37  16  18  1
        38  16  37  1
        39  16  38  1
        40  17  19  1
        41  17  39  1
        42  17  40  1
        43  19  41  1
@<TRIPOS>SUBSTRUCTURE
       1 LIG             1 RESIDUE    0 **** ROOT      0

