@<TRIPOS>MOLECULE
LIG
52 55
SMALL
USER_CHARGES
@<TRIPOS>ATOM
      1 C1         31.7134  111.3427   44.1742 AA             0 LIG     -0.151259
      2 C2         32.0988  111.7972   42.9013 AB             0 LIG     -0.151259
      3 C3         31.6235  109.9613   44.4338 AD             0 LIG     -0.219304
      4 C4         32.4041  110.8646   41.8948 AE             0 LIG     -0.194592
      5 C5         34.2826  106.1710   41.2414 AF             0 LIG     -0.194592
      6 C6         34.7726  105.0657   41.9592 AH             0 LIG     -0.194592
      7 C7         33.3576  105.6891   43.8450 AI             0 LIG     -0.277127
      8 C8         31.9155  109.0066   43.4276 AJ             0 LIG     0.085655
      9 C9         32.8306  106.7898   43.1252 AK             0 LIG     0.085655
     10 C10        32.3264  109.4827   42.1550 AN             0 LIG     0.112307
     11 C11        33.3272  107.0302   41.8180 AO             0 LIG     0.112307
     12 C12        34.3113  104.8304   43.2667 AP             0 LIG     0.162844
     13 C13        29.6236  105.4703   39.5683 AQ             0 LIG     -0.032521
     14 C14        30.1298  104.0552   39.8528 AV             0 LIG     -0.034488
     15 C15        29.0757  106.0768   40.8579 AW             0 LIG     -0.055761
     16 C16        31.1644  104.0644   40.9911 AX             0 LIG     -0.006430
     17 C17        30.1375  106.0811   41.9880 AY             1 LIG     0.133288
     18 C18        31.6579  104.6015   43.3169 AZ             0 LIG     -0.176010
     19 C19        36.5824  103.0967   43.6614 BB             0 LIG     -0.159669
     20 C20        29.5234  106.7580   43.2328 BC             0 LIG     -0.036260
     21 C21        30.6124  107.0957   44.2726 BD             0 LIG     0.036576
     22 N1         31.8255  107.6172   43.6795 BF             0 LIG     -0.187743
     23 N2         30.6389  104.6920   42.2359 BG             2 LIG     -0.192054
     24 S1         32.7498  108.3801   40.8429 BH             0 LIG     -0.197945
     25 S2         34.8817  103.4421   44.1942 BJ             0 LIG     -0.259338
     26 H1         31.4995  112.0553   44.9575 BK             0 LIG     0.162335
     27 H2         32.1750  112.8566   42.7001 BL             0 LIG     0.162335
     28 H3         31.3606  109.6698   45.4371 BM             0 LIG     0.137375
     29 H4         32.7157  111.2102   40.9197 BN             0 LIG     0.176356
     30 H5         34.6420  106.3623   40.2404 BO             0 LIG     0.176356
     31 H6         35.4978  104.4122   41.4969 BP             0 LIG     0.176356
     32 H7         33.0629  105.4894   44.8617 BQ             0 LIG     0.141006
     33 H8         30.4310  106.0941   39.1787 BS             0 LIG     0.046484
     34 H9         28.8501  105.4520   38.7975 BT             0 LIG     0.046484
     35 H10        29.2910  103.4039   40.1054 BU             0 LIG     0.051372
     36 H11        30.5758  103.6394   38.9466 BV             0 LIG     0.051372
     37 H12        28.7267  107.0867   40.6423 BW             0 LIG     0.048966
     38 H13        28.1844  105.5278   41.1692 BX             0 LIG     0.048966
     39 H14        31.4764  103.0375   41.1903 BY             0 LIG     0.095743
     40 H15        32.0575  104.6024   40.6636 BZ             0 LIG     0.095743
     41 H16        30.9894  106.6800   41.6650 CB             0 LIG     0.086415
     42 H17        32.4911  105.2795   43.1229 CI             0 LIG     0.129026
     43 H18        32.0635  103.5906   43.3891 CJ             0 LIG     0.129026
     44 H19        31.2539  104.8307   44.3016 CK             0 LIG     0.129026
     45 H20        37.0317  102.3411   44.3059 CM             0 LIG     0.110256
     46 H21        37.1913  103.9991   43.7189 CN             0 LIG     0.110256
     47 H22        36.6050  102.7223   42.6383 CT             0 LIG     0.110256
     48 H23        28.9837  107.6429   42.8974 CW             0 LIG     0.037623
     49 H24        28.7716  106.1632   43.7459 DA             0 LIG     0.037623
     50 H25        30.2018  107.8283   44.9635 DB             0 LIG     0.084613
     51 H26        30.8864  106.2400   44.8841 DC             0 LIG     0.084613
     52 H27        29.8461  104.1372   42.5294 DD             0 LIG     0.326325
@<TRIPOS>BOND
        1  1  2  2
        2  1  3  1
        3  1  26  1
        4  2  4  1
        5  2  27  1
        6  3  8  2
        7  3  28  1
        8  4  10  2
        9  4  29  1
        10  5  6  1
        11  5  11  2
        12  5  30  1
        13  6  12  2
        14  6  31  1
        15  7  9  2
        16  7  12  1
        17  7  32  1
        18  8  10  1
        19  8  22  1
        20  9  11  1
        21  9  22  1
        22  10  24  1
        23  11  24  1
        24  12  25  1
        25  13  14  1
        26  13  15  1
        27  13  33  1
        28  13  34  1
        29  14  16  1
        30  14  35  1
        31  14  36  1
        32  15  17  1
        33  15  37  1
        34  15  38  1
        35  16  23  1
        36  16  39  1
        37  16  40  1
        38  17  20  1
        39  17  23  1
        40  17  41  1
        41  18  23  1
        42  18  42  1
        43  18  43  1
        44  18  44  1
        45  19  25  1
        46  19  45  1
        47  19  46  1
        48  19  47  1
        49  20  21  1
        50  20  48  1
        51  20  49  1
        52  21  22  1
        53  21  50  1
        54  21  51  1
        55  23  52  1
@<TRIPOS>SUBSTRUCTURE
       1 LIG             1 RESIDUE    0 **** ROOT      0

