@<TRIPOS>MOLECULE
LIG
52 55
SMALL
USER_CHARGES
@<TRIPOS>ATOM
      1 C1         31.9303  111.3357   44.2513 AA             0 LIG     -0.151741
      2 C2         32.3466  111.7931   42.9896 AB             0 LIG     -0.151741
      3 C3         31.7523  109.9574   44.4796 AD             0 LIG     -0.220252
      4 C4         32.5865  110.8676   41.9586 AE             0 LIG     -0.194616
      5 C5         34.2764  106.1592   41.2379 AF             0 LIG     -0.194616
      6 C6         34.7821  105.0669   41.9642 AH             0 LIG     -0.194616
      7 C7         33.3357  105.6650   43.8334 AI             0 LIG     -0.276550
      8 C8         31.9905  109.0088   43.4520 AJ             0 LIG     0.084603
      9 C9         32.8008  106.7600   43.1101 AK             0 LIG     0.084603
     10 C10        32.4181  109.4875   42.1864 AN             0 LIG     0.112404
     11 C11        33.3041  107.0061   41.8060 AO             0 LIG     0.112404
     12 C12        34.3143  104.8252   43.2687 AP             0 LIG     0.163041
     13 C13        27.5669  105.7431   40.8934 AQ             0 LIG     -0.029878
     14 C14        27.5280  104.2579   41.2132 AV             0 LIG     -0.034345
     15 C15        29.0184  106.2250   40.7684 AW             0 LIG     -0.054555
     16 C16        28.3648  103.9423   42.4653 AX             0 LIG     0.011138
     17 C17        29.8323  105.9250   42.0602 AY             1 LIG     0.149935
     18 C18        30.6475  103.9895   43.4293 AZ             0 LIG     -0.244054
     19 C19        36.6295  103.1459   43.6792 BB             0 LIG     -0.160589
     20 C20        29.4480  106.8187   43.2937 BC             0 LIG     -0.033239
     21 C21        30.6421  107.0735   44.2505 BD             0 LIG     0.039575
     22 N1         31.8271  107.6212   43.6705 BF             0 LIG     -0.187004
     23 N2         29.7620  104.4569   42.3294 BG             1 LIG     -0.070769
     24 S1         32.7453  108.3808   40.8501 BH             0 LIG     -0.197900
     25 S2         34.9311  103.4759   44.2271 BJ             0 LIG     -0.258446
     26 H1         31.7680  112.0442   45.0516 BK             0 LIG     0.161610
     27 H2         32.5011  112.8492   42.8155 BL             0 LIG     0.161610
     28 H3         31.4699  109.6555   45.4741 BM             0 LIG     0.136076
     29 H4         32.9202  111.2156   40.9919 BN             0 LIG     0.176324
     30 H5         34.6473  106.3612   40.2439 BO             0 LIG     0.176324
     31 H6         35.5326  104.4342   41.5143 BP             0 LIG     0.176324
     32 H7         33.0456  105.4646   44.8519 BQ             0 LIG     0.140791
     33 H8         27.0194  105.9798   39.9741 BS             0 LIG     0.046381
     34 H9         27.0532  106.2519   41.7012 BT             0 LIG     0.046381
     35 H10        26.4892  103.9570   41.3654 BU             0 LIG     0.049941
     36 H11        27.8928  103.7105   40.3488 BV             0 LIG     0.049941
     37 H12        29.4824  105.7394   39.9158 BW             0 LIG     0.046927
     38 H13        29.0258  107.2607   40.4550 BX             0 LIG     0.046927
     39 H14        27.8912  104.3550   43.3537 BY             0 LIG     0.081886
     40 H15        28.3829  102.8622   42.5974 BZ             0 LIG     0.081886
     41 H16        30.8739  106.1545   41.8225 CB             0 LIG     0.038290
     42 H17        30.2813  104.3097   44.4018 CI             0 LIG     0.142123
     43 H18        31.6602  104.3702   43.2979 CJ             0 LIG     0.142123
     44 H19        30.7024  102.9007   43.4347 CK             0 LIG     0.142123
     45 H20        37.0941  102.4064   44.3318 CM             0 LIG     0.110774
     46 H21        37.2276  104.0567   43.7148 CN             0 LIG     0.110774
     47 H22        36.6427  102.7538   42.6626 CT             0 LIG     0.110774
     48 H23        28.9777  107.7437   42.9695 CW             0 LIG     0.042019
     49 H24        28.6707  106.2982   43.8723 DA             0 LIG     0.042019
     50 H25        30.3129  107.6483   45.1324 DB             0 LIG     0.082888
     51 H26        31.0229  106.1521   44.6857 DC             0 LIG     0.082888
     52 H27        30.1163  104.0258   41.4977 DD             0 LIG     0.271082
@<TRIPOS>BOND
        1  1  2  2
        2  1  3  1
        3  1  26  1
        4  2  4  1
        5  2  27  1
        6  3  8  2
        7  3  28  1
        8  4  10  2
        9  4  29  1
        10  5  6  1
        11  5  11  2
        12  5  30  1
        13  6  12  2
        14  6  31  1
        15  7  9  2
        16  7  12  1
        17  7  32  1
        18  8  10  1
        19  8  22  1
        20  9  11  1
        21  9  22  1
        22  10  24  1
        23  11  24  1
        24  12  25  1
        25  13  14  1
        26  13  15  1
        27  13  33  1
        28  13  34  1
        29  14  16  1
        30  14  35  1
        31  14  36  1
        32  15  17  1
        33  15  37  1
        34  15  38  1
        35  16  23  1
        36  16  39  1
        37  16  40  1
        38  17  20  1
        39  17  23  1
        40  17  41  1
        41  18  23  1
        42  18  42  1
        43  18  43  1
        44  18  44  1
        45  19  25  1
        46  19  45  1
        47  19  46  1
        48  19  47  1
        49  20  21  1
        50  20  48  1
        51  20  49  1
        52  21  22  1
        53  21  50  1
        54  21  51  1
        55  23  52  1
@<TRIPOS>SUBSTRUCTURE
       1 LIG             1 RESIDUE    0 **** ROOT      0

