@<TRIPOS>MOLECULE
LIG
50 53
SMALL
USER_CHARGES
@<TRIPOS>ATOM
      1 C1         32.1519  111.2804   44.3519 AA             0 LIG     -0.146946
      2 C2         32.6438  111.7446   43.1191 AB             0 LIG     -0.146946
      3 C3         31.8197  109.9227   44.5171 AD             0 LIG     -0.213882
      4 C4         32.7923  110.8528   42.0446 AE             0 LIG     -0.189563
      5 C5         34.2774  106.1467   41.2261 AF             0 LIG     -0.189563
      6 C6         34.8127  105.0862   41.9781 AH             0 LIG     -0.186283
      7 C7         33.2658  105.6105   43.7848 AI             0 LIG     -0.267664
      8 C8         31.9980  109.0070   43.4534 AJ             0 LIG     0.094519
      9 C9         32.7268  106.6968   43.0588 AK             0 LIG     0.094519
     10 C10        32.4713  109.4926   42.2068 AN             0 LIG     0.116195
     11 C11        33.2592  106.9592   41.7693 AO             0 LIG     0.116195
     12 C12        34.3137  104.8253   43.2698 AP             0 LIG     -0.069395
     13 C13        28.0198  104.4025   42.2235 AQ             0 LIG     -0.041121
     14 C14        29.1629  104.6127   40.0752 AV             0 LIG     -0.041121
     15 C15        26.7627  103.9124   41.4775 AW             0 LIG     0.063286
     16 C16        27.8877  104.1189   39.3653 AX             0 LIG     0.063286
     17 C17        29.5083  106.7347   43.2883 AY             0 LIG     -0.016690
     18 C18        30.5765  107.1906   44.2965 AZ             0 LIG     0.028631
     19 C19        29.9749  105.9270   42.0630 BB             0 LIG     -0.059139
     20 N1         31.8327  107.6237   43.6557 BC             0 LIG     -0.187888
     21 N2         28.8178  105.3035   41.3534 BD             0 LIG     -0.035261
     22 N3         27.1421  103.2271   40.2459 BF             0 LIG     -0.795699
     23 F1         33.9902  102.8104   44.3476 BG             0 LIG     -0.251326
     24 F2         35.1997  104.2856   45.3553 BH             0 LIG     -0.251326
     25 F3         36.0063  103.2092   43.6524 BJ             0 LIG     -0.251326
     26 S1         32.7400  108.3782   40.8637 BK             0 LIG     -0.162784
     27 C20        34.9073  103.7559   44.1659 BL             0 LIG     0.697269
     28 H1         32.0810  111.9604   45.1876 BM             0 LIG     0.171877
     29 H2         32.9529  112.7744   43.0105 BN             0 LIG     0.171877
     30 H3         31.4959  109.5804   45.4873 BO             0 LIG     0.150837
     31 H4         33.2062  111.1946   41.1094 BP             0 LIG     0.186066
     32 H5         34.6950  106.3896   40.2615 BQ             0 LIG     0.186066
     33 H6         35.6455  104.5143   41.5908 BS             0 LIG     0.189607
     34 H7         32.9828  105.3996   44.7998 BT             0 LIG     0.149674
     35 H8         27.7153  104.9359   43.1246 BU             0 LIG     0.093433
     36 H9         28.6272  103.5565   42.5438 BV             0 LIG     0.093433
     37 H10        29.8455  103.7815   40.2572 BW             0 LIG     0.093433
     38 H11        29.6662  105.2813   39.3749 BX             0 LIG     0.093433
     39 H12        26.1975  103.2240   42.1111 BY             0 LIG     0.105981
     40 H13        26.0922  104.7423   41.2411 BZ             0 LIG     0.105981
     41 H14        27.2538  104.9584   39.0661 CB             0 LIG     0.105981
     42 H15        28.1517  103.5879   38.4447 CI             0 LIG     0.105981
     43 H16        28.7753  106.1368   43.8300 CJ             0 LIG     0.044237
     44 H17        29.0273  107.6382   42.9260 CK             0 LIG     0.044237
     45 H18        30.2024  108.0155   44.9066 CM             0 LIG     0.093748
     46 H19        30.7860  106.3784   44.9968 CN             0 LIG     0.093748
     47 H20        30.5283  106.5761   41.3842 CT             0 LIG     0.094892
     48 H21        30.6743  105.1451   42.3793 CW             0 LIG     0.094892
     49 H22        27.5956  102.3269   40.3946 DA             0 LIG     0.419755
     50 H23        28.1872  106.0479   41.0912 DB             0 LIG     0.340852
@<TRIPOS>BOND
        1  1  2  2
        2  1  3  1
        3  1  28  1
        4  2  4  1
        5  2  29  1
        6  3  8  2
        7  3  30  1
        8  4  10  2
        9  4  31  1
        10  5  6  1
        11  5  11  2
        12  5  32  1
        13  6  12  2
        14  6  33  1
        15  7  9  2
        16  7  12  1
        17  7  34  1
        18  8  10  1
        19  8  20  1
        20  9  11  1
        21  9  20  1
        22  10  26  1
        23  11  26  1
        24  12  27  1
        25  13  15  1
        26  13  21  1
        27  13  35  1
        28  13  36  1
        29  14  16  1
        30  14  21  1
        31  14  37  1
        32  14  38  1
        33  15  22  1
        34  15  39  1
        35  15  40  1
        36  16  22  1
        37  16  41  1
        38  16  42  1
        39  17  18  1
        40  17  19  1
        41  17  43  1
        42  17  44  1
        43  18  20  1
        44  18  45  1
        45  18  46  1
        46  19  21  1
        47  19  47  1
        48  19  48  1
        49  21  50  1
        50  22  49  1
        51  23  27  1
        52  24  27  1
        53  25  27  1
@<TRIPOS>SUBSTRUCTURE
       1 LIG             1 RESIDUE    0 **** ROOT      0

