@<TRIPOS>MOLECULE
LIG
50 53
SMALL
USER_CHARGES
@<TRIPOS>ATOM
      1 C1         32.1517  111.2875   44.3463 AA             0 LIG     -0.148793
      2 C2         32.6351  111.7469   43.1075 AB             0 LIG     -0.148793
      3 C3         31.8064  109.9303   44.5109 AD             0 LIG     -0.214109
      4 C4         32.7739  110.8509   42.0359 AE             0 LIG     -0.192215
      5 C5         34.2969  106.1686   41.2377 AF             0 LIG     -0.192215
      6 C6         34.8323  105.1150   41.9930 AH             0 LIG     -0.190417
      7 C7         33.2133  105.5701   43.7581 AI             0 LIG     -0.264320
      8 C8         31.9818  109.0075   43.4526 AJ             0 LIG     0.095370
      9 C9         32.7294  106.6938   43.0545 AK             0 LIG     0.095370
     10 C10        32.4523  109.4902   42.2067 AN             0 LIG     0.116137
     11 C11        33.2735  106.9714   41.7751 AO             0 LIG     0.116137
     12 C12        34.3095  104.8284   43.2729 AP             0 LIG     -0.071581
     13 C13        27.7562  105.1484   41.6220 AQ             0 LIG     0.037365
     14 C14        29.4987  104.4683   40.1152 AV             0 LIG     0.037365
     15 C15        26.7060  105.0492   40.4968 AW             0 LIG     0.086222
     16 C16        28.4864  104.3793   38.9569 AX             0 LIG     0.086222
     17 C17        29.4526  106.5825   43.2944 AY             0 LIG     0.011333
     18 C18        30.5841  107.1044   44.2365 AZ             0 LIG     0.026484
     19 C19        30.0276  105.7685   42.1161 BB             0 LIG     0.037611
     20 N1         31.8400  107.6189   43.6490 BC             0 LIG     -0.178062
     21 N2         29.0580  105.5145   41.0490 BD             0 LIG     -0.528710
     22 N3         27.1379  104.0650   39.4790 BF             0 LIG     -0.527743
     23 F1         35.1550  104.3136   45.3887 BG             0 LIG     -0.255693
     24 F2         36.0983  103.3354   43.7050 BH             0 LIG     -0.255693
     25 F3         34.0931  102.7676   44.3156 BJ             0 LIG     -0.255693
     26 S1         32.7368  108.3799   40.8671 BK             0 LIG     -0.174420
     27 C20        34.9375  103.7864   44.1809 BL             0 LIG     0.695255
     28 H1         32.0974  111.9655   45.1853 BM             0 LIG     0.167075
     29 H2         32.9500  112.7771   42.9979 BN             0 LIG     0.167075
     30 H3         31.4855  109.6101   45.4861 BO             0 LIG     0.157041
     31 H4         33.1850  111.1883   41.0982 BP             0 LIG     0.180382
     32 H5         34.7148  106.4150   40.2760 BQ             0 LIG     0.180382
     33 H6         35.6815  104.5575   41.6166 BS             0 LIG     0.183084
     34 H7         32.8389  105.2954   44.7330 BT             0 LIG     0.171935
     35 H8         27.4372  105.9123   42.3356 BU             0 LIG     0.086347
     36 H9         27.8234  104.2118   42.1827 BV             0 LIG     0.086347
     37 H10        29.6136  103.5107   40.6263 BW             0 LIG     0.086347
     38 H11        30.4747  104.7222   39.7025 BX             0 LIG     0.086347
     39 H12        25.7388  104.7538   40.9057 BY             0 LIG     0.119217
     40 H13        26.5652  106.0263   40.0318 BZ             0 LIG     0.119217
     41 H14        28.4605  105.3235   38.4096 CB             0 LIG     0.119217
     42 H15        28.7938  103.6125   38.2448 CI             0 LIG     0.119217
     43 H16        28.7374  105.9853   43.8505 CJ             0 LIG     0.035265
     44 H17        28.8637  107.3767   42.8515 CK             0 LIG     0.035265
     45 H18        30.1543  107.8509   44.9198 CM             0 LIG     0.085093
     46 H19        30.9297  106.2691   44.8613 CN             0 LIG     0.085093
     47 H20        30.9197  106.2580   41.7136 CT             0 LIG     0.068063
     48 H21        30.3693  104.8022   42.4891 CW             0 LIG     0.068063
     49 H22        27.1728  103.1543   39.9124 DA             0 LIG     0.375757
     50 H23        26.4744  104.0549   38.7172 DB             0 LIG     0.375757
@<TRIPOS>BOND
        1  1  2  2
        2  1  3  1
        3  1  28  1
        4  2  4  1
        5  2  29  1
        6  3  8  2
        7  3  30  1
        8  4  10  2
        9  4  31  1
        10  5  6  1
        11  5  11  2
        12  5  32  1
        13  6  12  2
        14  6  33  1
        15  7  9  2
        16  7  12  1
        17  7  34  1
        18  8  10  1
        19  8  20  1
        20  9  11  1
        21  9  20  1
        22  10  26  1
        23  11  26  1
        24  12  27  1
        25  13  15  1
        26  13  21  1
        27  13  35  1
        28  13  36  1
        29  14  16  1
        30  14  21  1
        31  14  37  1
        32  14  38  1
        33  15  22  1
        34  15  39  1
        35  15  40  1
        36  16  22  1
        37  16  41  1
        38  16  42  1
        39  17  18  1
        40  17  19  1
        41  17  43  1
        42  17  44  1
        43  18  20  1
        44  18  45  1
        45  18  46  1
        46  19  21  1
        47  19  47  1
        48  19  48  1
        49  22  49  1
        50  22  50  1
        51  23  27  1
        52  24  27  1
        53  25  27  1
@<TRIPOS>SUBSTRUCTURE
       1 LIG             1 RESIDUE    0 **** ROOT      0

