TFP1bssS
                    3D
 Structure written by MMmdl.
 50 53  0  0  1  0            999 V2000
   33.2799  109.2671   44.8714 C   0  0  0  0  0  0
   34.3461  108.7666   44.1031 C   0  0  0  0  0  0
   31.9502  108.9772   44.5085 C   0  0  0  0  0  0
   34.0794  107.9687   42.9755 C   0  0  0  0  0  0
   30.4231  106.8477   39.4092 C   0  0  0  0  0  0
   29.1241  107.1976   38.9949 C   0  0  0  0  0  0
   28.6999  108.1443   41.1940 C   0  0  0  0  0  0
   31.6661  108.1834   43.3729 C   0  0  0  0  0  0
   29.9611  107.7201   41.6598 C   0  0  0  0  0  0
   32.7519  107.6747   42.6096 C   0  0  0  0  0  0
   30.8414  107.1032   40.7328 C   0  0  0  0  0  0
   28.2547  107.8458   39.8930 C   0  0  0  0  0  0
   29.5857  102.9807   41.6706 C   0  0  0  0  0  0
   28.4359  105.0726   41.9276 C   0  0  0  0  0  0
   28.2739  102.2511   41.3929 C   0  0  0  0  0  0
   27.1251  104.3360   41.5066 C   0  0  0  0  0  0
   30.2851  105.6993   44.3531 C   0  0  0  0  0  0
   29.6357  107.0842   44.0118 C   0  0  0  0  0  0
   30.5577  104.7601   43.1292 C   0  0  0  0  0  0
   30.3278  107.9209   43.0120 N   0  0  0  0  0  0
   29.3367  104.1081   42.6064 N   0  3  0  0  0  0
   27.3885  103.1525   40.6752 N   0  0  0  0  0  0
   26.5481  109.4427   39.8289 F   0  0  0  0  0  0
   26.0201  107.3886   40.2579 F   0  0  0  0  0  0
   26.5594  107.9650   38.2378 F   0  0  0  0  0  0
   32.4818  106.6538   41.1918 S   0  0  0  0  0  0
   26.8173  108.1733   39.5279 C   0  0  0  0  0  0
   33.4859  109.8895   45.7307 H   0  0  0  0  0  0
   35.3673  108.9998   44.3728 H   0  0  0  0  0  0
   31.1440  109.3891   45.0957 H   0  0  0  0  0  0
   34.9006  107.5970   42.3786 H   0  0  0  0  0  0
   31.1021  106.3766   38.7121 H   0  0  0  0  0  0
   28.8004  106.9753   37.9872 H   0  0  0  0  0  0
   28.0328  108.6832   41.8447 H   0  0  0  0  0  0
   30.1869  102.2016   42.0633 H   0  0  0  0  0  0
   30.1210  103.3170   40.7800 H   0  0  0  0  0  0
   28.9764  105.4521   41.0492 H   0  0  0  0  0  0
   28.1866  105.9478   42.5550 H   0  0  0  0  0  0
   28.4774  101.3622   40.8058 H   0  0  0  0  0  0
   27.7982  101.8827   42.3049 H   0  0  0  0  0  0
   26.5851  104.0376   42.4102 H   0  0  0  0  0  0
   26.4939  105.0351   40.9367 H   0  0  0  0  0  0
   31.1578  105.8110   45.0076 H   0  0  0  0  0  0
   29.5660  105.2196   45.0213 H   0  0  0  0  0  0
   28.5831  106.9814   43.7271 H   0  0  0  0  0  0
   29.6140  107.6326   44.9509 H   0  0  0  0  0  0
   31.1172  105.2863   42.3621 H   0  0  0  0  0  0
   31.1910  103.9321   43.3823 H   0  0  0  0  0  0
   27.8043  103.3842   39.7867 H   0  0  0  0  0  0
   28.8222  103.7612   43.3999 H   0  0  0  0  0  0
  1  2  2  0  0  0
  1  3  1  0  0  0
  1 28  1  0  0  0
  2  4  1  0  0  0
  2 29  1  0  0  0
  3  8  2  0  0  0
  3 30  1  0  0  0
  4 10  2  0  0  0
  4 31  1  0  0  0
  5  6  2  0  0  0
  5 11  1  0  0  0
  5 32  1  0  0  0
  6 12  1  0  0  0
  6 33  1  0  0  0
  7  9  1  0  0  0
  7 12  2  0  0  0
  7 34  1  0  0  0
  8 10  1  0  0  0
  8 20  1  0  0  0
  9 11  2  0  0  0
  9 20  1  0  0  0
 10 26  1  0  0  0
 11 26  1  0  0  0
 12 27  1  0  0  0
 13 15  1  0  0  0
 13 21  1  0  0  0
 13 35  1  0  0  0
 13 36  1  0  0  0
 14 16  1  0  0  0
 14 21  1  0  0  0
 14 37  1  0  0  0
 14 38  1  0  0  0
 15 22  1  0  0  0
 15 39  1  0  0  0
 15 40  1  0  0  0
 16 22  1  0  0  0
 16 41  1  0  0  0
 16 42  1  0  0  0
 17 18  1  0  0  0
 17 19  1  0  0  0
 17 43  1  0  0  0
 17 44  1  0  0  0
 18 20  1  0  0  0
 18 45  1  0  0  0
 18 46  1  0  0  0
 19 21  1  0  0  0
 19 47  1  0  0  0
 19 48  1  0  0  0
 21 50  1  0  0  0
 22 49  1  0  0  0
 23 27  1  0  0  0
 24 27  1  0  0  0
 25 27  1  0  0  0
M  CHG  1  21   1
M  END
> <s_m_entry_id>
501

> <s_m_entry_name>
TFP1bssS.1

> <s_m_Source_Path>
/home/emilio/Dropbox/SAMPL9-eglab/mCD/ligsdfs

> <s_m_Source_File>
TFP1bssS.sdf

> <i_m_Source_File_Index>
1

> <r_epik_Ionization_Penalty>
  0.1004

> <r_epik_State_Penalty>
  1.6660

> <i_epik_Tot_Q>
1

> <s_m_job_name>
ligprep_4

> <chiral flag>
1

> <version>
0

> <i_f3d_flags>
0

> <s_m_subgroup_title>
bCDq->ssS d_copy1

> <s_m_subgroupid>
bCDq_copy1->ssS_copy2

> <b_m_subgroup_collapsed>
0

$$$$
