@<TRIPOS>MOLECULE
LIG
147 154
SMALL
USER_CHARGES
@<TRIPOS>ATOM
      1 C1         26.1352  118.5135   45.5302 aa             2 LIG     0.429587
      2 C2         24.7840  118.4612   46.3203 ab             1 LIG     0.201964
      3 C3         23.7406  117.6823   45.4083 ad             2 LIG     0.216381
      4 C4         23.6976  118.3361   43.9744 ae             1 LIG     0.192567
      5 C5         25.1172  118.4239   43.3274 af             1 LIG     0.192567
      6 C6         25.1733  119.1347   41.9389 ah             0 LIG     0.180165
      7 C7         29.2414  114.2594   46.9639 ai             2 LIG     0.429587
      8 C8         27.6603  114.2917   47.3462 aj             1 LIG     0.201964
      9 C9         26.7738  115.1517   46.4175 ak             2 LIG     0.216381
     10 C10        27.3767  116.5638   46.3565 an             1 LIG     0.192567
     11 C11        28.9378  116.5536   46.0956 ao             1 LIG     0.192567
     12 C12        29.4432  118.0424   46.2574 ap             0 LIG     0.180165
     13 C13        31.3236  110.6631   43.5728 aq             2 LIG     0.429587
     14 C14        30.2409  110.1548   44.6871 av             1 LIG     0.201964
     15 C15        29.4543  111.4459   45.2104 aw             2 LIG     0.216381
     16 C16        30.3472  112.6771   45.4947 ax             1 LIG     0.192567
     17 C17        31.3505  112.9771   44.3241 ay             1 LIG     0.192567
     18 C18        32.3516  114.0913   44.6243 az             0 LIG     0.180165
     19 C19        29.8594  109.8351   38.5256 bb             2 LIG     0.429587
     20 C20        29.9593  108.6592   39.4780 bc             1 LIG     0.201964
     21 C21        29.9862  109.1503   40.9375 bd             2 LIG     0.216381
     22 C22        30.9461  110.3947   41.1518 bf             1 LIG     0.192567
     23 C23        30.7199  111.4647   40.0865 bg             1 LIG     0.192567
     24 C24        31.7108  112.6862   40.0019 bh             0 LIG     0.180165
     25 C25        24.5364  110.6934   37.1441 bj             2 LIG     0.429587
     26 C26        24.9212  109.4996   38.0913 bk             1 LIG     0.201964
     27 C27        26.1340  109.7520   38.9565 bl             2 LIG     0.216381
     28 C28        27.2847  110.1262   37.9918 bm             1 LIG     0.192567
     29 C29        26.8892  111.3399   37.1042 bn             1 LIG     0.192567
     30 C30        27.9728  111.6442   36.0058 bo             0 LIG     0.180165
     31 C31        20.9710  114.1956   39.1107 bp             2 LIG     0.429587
     32 C32        20.8781  112.7339   39.5026 bq             1 LIG     0.201964
     33 C33        22.1678  111.9034   39.2946 bs             2 LIG     0.216381
     34 C34        22.8954  112.2892   37.9746 bt             1 LIG     0.192567
     35 C35        22.9494  113.8836   37.6273 bu             1 LIG     0.192567
     36 C36        23.5863  114.3255   36.2651 bv             0 LIG     0.180165
     37 C37        21.5779  117.9229   42.8711 bw             1 LIG     0.429587
     38 C38        20.5788  116.7782   43.1304 bx             1 LIG     0.201964
     39 C39        21.0090  115.5504   42.3552 by             2 LIG     0.216381
     40 C40        21.0532  115.9188   40.8032 bz             1 LIG     0.192567
     41 C41        21.9442  117.1995   40.5488 cb             1 LIG     0.192567
     42 C42        21.7316  117.6840   39.0260 ci             0 LIG     0.180165
     43 O1         24.9282  117.7918   47.6204 cj             0 LIG     -0.741075
     44 O2         22.4126  117.7591   45.9690 ck             0 LIG     -0.741075
     45 O3         22.9092  117.5210   43.0621 cm             0 LIG     -0.544165
     46 O4         25.9697  119.1286   44.2389 cn             0 LIG     -0.544165
     47 O5         26.5159  119.3696   41.5325 ct             0 LIG     -0.741075
     48 O6         27.0687  112.9272   47.3840 cw             0 LIG     -0.741075
     49 O7         25.4170  115.2454   47.0147 da             0 LIG     -0.741075
     50 O8         26.6892  117.1414   45.2811 db             0 LIG     -0.544165
     51 O9         29.7049  115.6357   46.9549 dc             0 LIG     -0.544165
     52 O10        30.9184  118.2234   46.1218 dd             0 LIG     -0.741075
     53 O11        29.3214  109.0605   44.2955 de             0 LIG     -0.741075
     54 O12        28.6454  111.1687   46.3534 df             0 LIG     -0.741075
     55 O13        29.4816  113.8162   45.6377 dg             0 LIG     -0.544165
     56 O14        32.0811  111.7698   44.0389 dh             0 LIG     -0.544165
     57 O15        33.2985  114.1721   43.5929 di             0 LIG     -0.741075
     58 O16        28.8918  107.6813   39.2790 dj             0 LIG     -0.741075
     59 O17        30.3643  108.0657   41.8611 dk             0 LIG     -0.741075
     60 O18        30.5615  111.0442   42.3774 dl             0 LIG     -0.544165
     61 O19        30.8522  110.7784   38.7925 dm             0 LIG     -0.544165
     62 O20        31.4752  113.5263   38.8325 dn             0 LIG     -0.741075
     63 O21        23.8029  109.1038   38.9003 do             0 LIG     -0.741075
     64 O22        26.4608  108.5057   39.6223 dp             0 LIG     -0.741075
     65 O23        28.5345  110.4704   38.7781 dq             0 LIG     -0.544165
     66 O24        25.7042  110.9718   36.3282 dr             0 LIG     -0.544165
     67 O25        28.1086  110.5793   35.0100 ds             0 LIG     -0.741075
     68 O26        20.4067  112.5751   40.7989 dt             0 LIG     -0.741075
     69 O27        21.7771  110.4873   39.3180 dv             0 LIG     -0.741075
     70 O28        24.3264  111.8661   37.9416 dw             0 LIG     -0.544165
     71 O29        21.6116  114.4328   37.8045 dx             0 LIG     -0.544165
     72 O30        22.8095  113.8912   35.1356 dz             0 LIG     -0.741075
     73 O31        20.5421  116.4880   44.5744 ea             0 LIG     -0.741075
     74 O32        20.1224  114.3940   42.6291 eb             0 LIG     -0.741075
     75 O33        21.7398  114.8105   40.1341 ec             0 LIG     -0.544165
     76 O34        21.5051  118.2684   41.4348 ed             0 LIG     -0.544165
     77 O35        22.6718  118.6516   38.7145 ee             0 LIG     -0.741075
     78 H1         29.1435  118.4989   47.2286 ef             0 LIG     0.065605
     79 H2         28.8984  118.6081   45.4235 eg             0 LIG     0.065605
     80 H3         25.2144  116.8641   47.3937 eh             0 LIG     0.491666
     81 H4         22.5683  118.0509   46.8960 ei             0 LIG     0.491666
     82 H5         26.4601  119.4869   40.5330 ej             0 LIG     0.491666
     83 H6         27.7633  112.2618   47.0436 ek             0 LIG     0.491666
     84 H7         25.0608  114.3429   47.2443 el             0 LIG     0.491666
     85 H8         31.3453  117.3739   46.3829 em             0 LIG     0.491666
     86 H9         29.8573  108.6701   43.5010 en             0 LIG     0.491666
     87 H10        27.9542  110.5264   45.9711 eo             0 LIG     0.491666
     88 H11        33.2526  113.2306   43.2333 eq             0 LIG     0.491666
     89 H12        27.9722  108.0959   39.3425 es             0 LIG     0.491666
     90 H13        31.1050  107.5148   41.4568 et             0 LIG     0.491666
     91 H14        32.3496  113.9348   38.4733 ev             0 LIG     0.491666
     92 H15        23.1582  109.8072   39.0052 ew             0 LIG     0.491666
     93 H16        25.7298  108.4415   40.3431 ex             0 LIG     0.491666
     94 H17        27.1911  110.3140   34.7286 ey             0 LIG     0.491666
     95 H18        19.4774  112.1572   40.7981 ez             0 LIG     0.491666
     96 H19        21.3430  110.3495   40.2492 fa             0 LIG     0.491666
     97 H20        22.1900  114.7285   35.1428 fb             0 LIG     0.491666
     98 H21        21.3873  116.6087   45.0670 fc             0 LIG     0.491666
     99 H22        20.3268  113.8443   41.7991 fd             0 LIG     0.491666
    100 H23        22.7357  119.3216   39.4370 ff             0 LIG     0.491666
    101 H24        26.9048  119.0519   46.1030 fg             0 LIG     0.064779
    102 H25        24.3588  119.4936   46.4415 fh             0 LIG     0.061814
    103 H26        24.0597  116.6562   45.1534 fi             0 LIG     0.054082
    104 H27        23.3254  119.3580   44.0615 fj             0 LIG     0.055721
    105 H28        25.4983  117.4265   43.1858 fk             0 LIG     0.055721
    106 H29        24.6095  118.5187   41.3145 fl             0 LIG     0.065605
    107 H30        24.6344  120.1259   42.0019 fm             0 LIG     0.065605
    108 H31        29.8051  113.6852   47.7345 fn             0 LIG     0.064779
    109 H32        27.5589  114.7011   48.3528 fo             0 LIG     0.061814
    110 H33        26.7991  114.7159   45.4112 fp             0 LIG     0.054082
    111 H34        27.2231  117.0944   47.3167 fq             0 LIG     0.055721
    112 H35        29.0090  116.2249   45.0234 fs             0 LIG     0.055721
    113 H36        31.9834  109.8696   43.3118 ft             0 LIG     0.064779
    114 H37        30.7234  109.7630   45.5734 fu             0 LIG     0.061814
    115 H38        28.8344  111.7350   44.3548 fv             0 LIG     0.054082
    116 H39        31.0495  112.5003   46.3781 fw             0 LIG     0.055721
    117 H40        30.7832  113.2487   43.4240 fx             0 LIG     0.055721
    118 H41        32.8659  113.7193   45.4872 fy             0 LIG     0.065605
    119 H42        31.9100  115.1104   44.9076 fz             0 LIG     0.065605
    120 H43        29.9158  109.4695   37.5201 gb             0 LIG     0.064779
    121 H44        30.9005  108.2454   39.1770 gc             0 LIG     0.061814
    122 H45        28.9645  109.4299   41.1862 gf             0 LIG     0.054082
    123 H46        32.0504  110.1427   41.2419 gg             0 LIG     0.055721
    124 H47        29.6359  111.8446   40.1214 gh             0 LIG     0.055721
    125 H48        31.5263  113.2468   40.9127 gi             0 LIG     0.065605
    126 H49        32.7590  112.2413   40.0236 gj             0 LIG     0.065605
    127 H50        23.7649  110.5176   36.4202 gk             0 LIG     0.064779
    128 H51        25.1536  108.7067   37.3373 gl             0 LIG     0.061814
    129 H52        25.9956  110.5567   39.6244 gm             0 LIG     0.054082
    130 H53        27.4903  109.2829   37.3552 gn             0 LIG     0.055721
    131 H54        26.6160  112.3124   37.6268 go             0 LIG     0.055721
    132 H55        27.7344  112.5782   35.5000 gp             0 LIG     0.065605
    133 H56        28.9227  111.8195   36.5289 gq             0 LIG     0.065605
    134 H57        20.0234  114.6523   38.9702 gr             0 LIG     0.064779
    135 H58        20.2115  112.3573   38.7936 gs             0 LIG     0.061814
    136 H59        22.7622  112.0527   40.2077 gt             0 LIG     0.054082
    137 H60        22.3812  111.8348   37.1264 gu             0 LIG     0.055721
    138 H61        23.5590  114.3559   38.3587 gv             0 LIG     0.055721
    139 H62        23.6776  115.3848   36.2587 gw             0 LIG     0.065605
    140 H63        24.6484  113.9814   36.2159 gx             0 LIG     0.065605
    141 H64        21.2519  118.8065   43.4552 gy             0 LIG     0.064779
    142 H65        19.6531  117.1297   42.6781 gz             0 LIG     0.061814
    143 H66        22.0199  115.3202   42.7135 hb             0 LIG     0.054082
    144 H67        19.9963  116.0462   40.5386 hd             0 LIG     0.055721
    145 H68        23.0241  117.0318   40.6438 hh             0 LIG     0.055721
    146 H69        20.6784  117.9531   38.8781 hi             0 LIG     0.065605
    147 H70        22.0456  116.8555   38.3792 hj             0 LIG     0.065605
@<TRIPOS>BOND
        1  1  2  1
        2  1  46  1
        3  1  50  1
        4  1  101  1
        5  2  3  1
        6  2  43  1
        7  2  102  1
        8  3  4  1
        9  3  44  1
        10  3  103  1
        11  4  5  1
        12  4  45  1
        13  4  104  1
        14  5  6  1
        15  5  46  1
        16  5  105  1
        17  6  47  1
        18  6  106  1
        19  6  107  1
        20  7  8  1
        21  7  51  1
        22  7  55  1
        23  7  108  1
        24  8  9  1
        25  8  48  1
        26  8  109  1
        27  9  10  1
        28  9  49  1
        29  9  110  1
        30  10  11  1
        31  10  50  1
        32  10  111  1
        33  11  12  1
        34  11  51  1
        35  11  112  1
        36  12  52  1
        37  12  78  1
        38  12  79  1
        39  13  14  1
        40  13  56  1
        41  13  60  1
        42  13  113  1
        43  14  15  1
        44  14  53  1
        45  14  114  1
        46  15  16  1
        47  15  54  1
        48  15  115  1
        49  16  17  1
        50  16  55  1
        51  16  116  1
        52  17  18  1
        53  17  56  1
        54  17  117  1
        55  18  57  1
        56  18  118  1
        57  18  119  1
        58  19  20  1
        59  19  61  1
        60  19  65  1
        61  19  120  1
        62  20  21  1
        63  20  58  1
        64  20  121  1
        65  21  22  1
        66  21  59  1
        67  21  122  1
        68  22  23  1
        69  22  60  1
        70  22  123  1
        71  23  24  1
        72  23  61  1
        73  23  124  1
        74  24  62  1
        75  24  125  1
        76  24  126  1
        77  25  26  1
        78  25  66  1
        79  25  70  1
        80  25  127  1
        81  26  27  1
        82  26  63  1
        83  26  128  1
        84  27  28  1
        85  27  64  1
        86  27  129  1
        87  28  29  1
        88  28  65  1
        89  28  130  1
        90  29  30  1
        91  29  66  1
        92  29  131  1
        93  30  67  1
        94  30  132  1
        95  30  133  1
        96  31  32  1
        97  31  71  1
        98  31  75  1
        99  31  134  1
        100  32  33  1
        101  32  68  1
        102  32  135  1
        103  33  34  1
        104  33  69  1
        105  33  136  1
        106  34  35  1
        107  34  70  1
        108  34  137  1
        109  35  36  1
        110  35  71  1
        111  35  138  1
        112  36  72  1
        113  36  139  1
        114  36  140  1
        115  37  38  1
        116  37  45  1
        117  37  76  1
        118  37  141  1
        119  38  39  1
        120  38  73  1
        121  38  142  1
        122  39  40  1
        123  39  74  1
        124  39  143  1
        125  40  41  1
        126  40  75  1
        127  40  144  1
        128  41  42  1
        129  41  76  1
        130  41  145  1
        131  42  77  1
        132  42  146  1
        133  42  147  1
        134  43  80  1
        135  44  81  1
        136  47  82  1
        137  48  83  1
        138  49  84  1
        139  52  85  1
        140  53  86  1
        141  54  87  1
        142  57  88  1
        143  58  89  1
        144  59  90  1
        145  62  91  1
        146  63  92  1
        147  64  93  1
        148  67  94  1
        149  68  95  1
        150  69  96  1
        151  72  97  1
        152  73  98  1
        153  74  99  1
        154  77  100  1
@<TRIPOS>SUBSTRUCTURE
       1 LIG             1 RESIDUE    0 **** ROOT      0

