@<TRIPOS>MOLECULE
LIG
41 43
SMALL
USER_CHARGES
@<TRIPOS>ATOM
      1 C1         31.4515  111.2596   50.8535 AA             0 LIG     -0.148984
      2 C2         31.3619  110.2519   51.8355 AB             0 LIG     -0.148984
      3 C3         30.2845  111.7895   50.2780 AD             0 LIG     -0.216162
      4 C4         30.0992  109.7712   52.2352 AE             0 LIG     -0.191448
      5 C5         25.6125  108.7708   50.1650 AF             0 LIG     -0.191448
      6 C6         24.9850  108.8399   48.9067 AH             0 LIG     -0.201273
      7 C7         26.1726  110.9191   48.4297 AI             0 LIG     -0.282378
      8 C8         29.0083  111.3200   50.6642 AJ             0 LIG     0.090825
      9 C9         26.8311  110.8532   49.6769 AK             0 LIG     0.090825
     10 C10        28.9326  110.2865   51.6384 AN             0 LIG     0.113170
     11 C11        26.5419  109.7600   50.5409 AO             0 LIG     0.113170
     12 C12        25.2681  109.9149   48.0400 AP             0 LIG     0.139586
     13 C13        26.5274  113.6060   54.7960 AQ             0 LIG     -0.327670
     14 C14        28.1894  112.0129   53.9876 AV             0 LIG     -0.327670
     15 C15        26.8154  113.9445   51.2531 AW             0 LIG     -0.018552
     16 C16        27.4925  113.2149   50.0593 AX             0 LIG     0.030051
     17 C17        26.5104  112.9256   52.3922 AY             0 LIG     0.155353
     18 N1         27.8248  111.7801   50.0477 AZ             0 LIG     -0.186524
     19 N2         27.3301  113.1666   53.6252 BB             0 LIG     0.134459
     20 S1         27.3707  109.6019   52.0870 BC             0 LIG     -0.184949
     21 CL1        24.5211  109.9892   46.4878 BD             0 LIG     -0.163674
     22 H1         32.4201  111.6086   50.5295 BF             0 LIG     0.167367
     23 H2         32.2589  109.8262   52.2657 BG             0 LIG     0.167367
     24 H3         30.3875  112.5319   49.5054 BH             0 LIG     0.144463
     25 H4         30.0263  108.9871   52.9770 BJ             0 LIG     0.182657
     26 H5         25.4071  107.9422   50.8336 BK             0 LIG     0.182657
     27 H6         24.3009  108.0585   48.6039 BL             0 LIG     0.185066
     28 H7         26.3785  111.7176   47.7375 BM             0 LIG     0.159917
     29 H8         25.8881  112.8064   55.1725 BN             0 LIG     0.163775
     30 H9         25.8736  114.4505   54.5893 BO             0 LIG     0.163775
     31 H10        27.1816  113.9186   55.6085 BP             0 LIG     0.163775
     32 H11        27.5964  111.1427   54.2740 BQ             0 LIG     0.163775
     33 H12        28.8241  112.2680   54.8358 BS             0 LIG     0.163775
     34 H13        28.8478  111.7245   53.1679 BT             0 LIG     0.163775
     35 H14        27.4702  114.7079   51.6488 BU             0 LIG     0.042423
     36 H15        25.9255  114.4975   50.9909 BV             0 LIG     0.042423
     37 H16        26.8551  113.3844   49.1892 BW             0 LIG     0.092460
     38 H17        28.4262  113.7313   49.8629 BX             0 LIG     0.092460
     39 H18        25.4429  112.9791   52.6322 BY             0 LIG     0.021392
     40 H19        26.6622  111.9044   52.0275 BZ             0 LIG     0.021392
     41 H20        27.9620  113.9220   53.3887 CB             0 LIG     0.237587
@<TRIPOS>BOND
        1  1  2  2
        2  1  3  1
        3  1  22  1
        4  2  4  1
        5  2  23  1
        6  3  8  2
        7  3  24  1
        8  4  10  2
        9  4  25  1
        10  5  6  1
        11  5  11  2
        12  5  26  1
        13  6  12  2
        14  6  27  1
        15  7  9  2
        16  7  12  1
        17  7  28  1
        18  8  10  1
        19  8  18  1
        20  9  11  1
        21  9  18  1
        22  10  20  1
        23  11  20  1
        24  12  21  1
        25  13  19  1
        26  13  29  1
        27  13  30  1
        28  13  31  1
        29  14  19  1
        30  14  32  1
        31  14  33  1
        32  14  34  1
        33  15  16  1
        34  15  17  1
        35  15  35  1
        36  15  36  1
        37  16  18  1
        38  16  37  1
        39  16  38  1
        40  17  19  1
        41  17  39  1
        42  17  40  1
        43  19  41  1
@<TRIPOS>SUBSTRUCTURE
       1 LIG             1 RESIDUE    0 **** ROOT      0

