@<TRIPOS>MOLECULE
LIG
41 43
SMALL
USER_CHARGES
@<TRIPOS>ATOM
      1 C1         31.3977  111.4972   51.1590 AA             0 LIG     -0.150100
      2 C2         25.2687  109.9100   48.0473 AB             0 LIG     -0.150100
      3 C3         31.3279  110.3818   52.0156 AD             0 LIG     -0.150100
      4 C4         25.0154  108.8224   48.9036 AE             0 LIG     -0.150100
      5 C5         30.2285  112.0268   50.5792 AF             0 LIG     -0.220762
      6 C6         26.1555  110.9396   48.4425 AH             0 LIG     -0.220762
      7 C7         30.0747  109.8072   52.3019 AI             0 LIG     -0.190531
      8 C8         25.6375  108.7702   50.1597 AJ             0 LIG     -0.190531
      9 C9         28.9749  111.4004   50.7782 AK             0 LIG     0.084657
     10 C10        26.8226  110.8729   49.6890 AN             0 LIG     0.084657
     11 C11        28.9115  110.3179   51.6922 AO             0 LIG     0.115853
     12 C12        26.5424  109.7755   50.5437 AP             0 LIG     0.115853
     13 C13        25.2624  114.1915   51.6319 AQ             0 LIG     -0.353988
     14 C14        26.8305  112.0387   53.5952 AV             0 LIG     -0.185375
     15 C15        27.8285  114.2454   53.1334 AW             0 LIG     -0.185375
     16 C16        27.2481  113.0956   50.1056 AX             0 LIG     0.002465
     17 C17        26.4046  113.1022   51.4229 AY             1 LIG     0.085935
     18 N1         27.8338  111.7970   50.0399 AZ             0 LIG     -0.190232
     19 N2         27.3448  112.9647   52.5653 BB             0 LIG     0.109280
     20 S1         27.3620  109.5898   52.0877 BC             0 LIG     -0.188456
     21 H1         32.3615  111.9331   50.9345 BD             0 LIG     0.166423
     22 H2         24.8116  109.9216   47.0664 BF             0 LIG     0.166423
     23 H3         32.2290  109.9677   52.4494 BG             0 LIG     0.166423
     24 H4         24.3663  108.0115   48.5948 BH             0 LIG     0.166423
     25 H5         30.3317  112.8869   49.9454 BJ             0 LIG     0.128375
     26 H6         26.3459  111.7229   47.7268 BK             0 LIG     0.128375
     27 H7         30.0100  108.9646   52.9725 BL             0 LIG     0.178440
     28 H8         25.4750  107.9307   50.8198 BM             0 LIG     0.178440
     29 H9         24.7487  114.4695   50.7362 BN             0 LIG     0.122803
     30 H10        25.5124  115.1180   52.0772 BO             0 LIG     0.122803
     31 H11        24.4775  113.8484   52.2809 BP             0 LIG     0.122803
     32 H12        25.9332  112.4374   54.0487 BQ             0 LIG     0.123915
     33 H13        27.5690  111.8859   54.3710 BS             0 LIG     0.123915
     34 H14        26.5974  111.0682   53.1739 BT             0 LIG     0.123915
     35 H15        26.9787  114.8714   53.4265 BU             0 LIG     0.123915
     36 H16        28.4389  114.7968   52.4095 BV             0 LIG     0.123915
     37 H17        28.4626  114.0782   54.0001 BW             0 LIG     0.123915
     38 H18        26.6313  113.2235   49.2271 BX             0 LIG     0.090289
     39 H19        28.0081  113.9096   50.0933 BY             0 LIG     0.090289
     40 H20        25.8151  112.1807   51.3780 BZ             0 LIG     0.141962
     41 H21        28.1520  112.5315   52.1467 CB             0 LIG     0.213953
@<TRIPOS>BOND
        1  1  3  2
        2  1  5  1
        3  1  21  1
        4  2  4  2
        5  2  6  1
        6  2  22  1
        7  3  7  1
        8  3  23  1
        9  4  8  1
        10  4  24  1
        11  5  9  2
        12  5  25  1
        13  6  10  2
        14  6  26  1
        15  7  11  2
        16  7  27  1
        17  8  12  2
        18  8  28  1
        19  9  11  1
        20  9  18  1
        21  10  12  1
        22  10  18  1
        23  11  20  1
        24  12  20  1
        25  13  17  1
        26  13  29  1
        27  13  30  1
        28  13  31  1
        29  14  19  1
        30  14  32  1
        31  14  33  1
        32  14  34  1
        33  15  19  1
        34  15  35  1
        35  15  36  1
        36  15  37  1
        37  16  17  1
        38  16  18  1
        39  16  38  1
        40  16  39  1
        41  17  19  1
        42  17  40  1
        43  19  41  1
@<TRIPOS>SUBSTRUCTURE
       1 LIG             1 RESIDUE    0 **** ROOT      0

