@<TRIPOS>MOLECULE
LIG
41 43
SMALL
USER_CHARGES
@<TRIPOS>ATOM
      1 C1         31.3426  111.7419   50.9088 PA             0 LIG     -0.151978
      2 C2         25.2936  109.9525   48.0353 PB             0 LIG     -0.151978
      3 C3         31.2548  110.8121   52.0036 PD             0 LIG     -0.151978
      4 C4         24.9555  108.8768   48.8718 PE             0 LIG     -0.151978
      5 C5         30.1734  111.9654   50.2453 PF             0 LIG     -0.221382
      6 C6         26.2855  110.8472   48.3859 PH             0 LIG     -0.221382
      7 C7         30.1452  110.0273   52.2641 PI             0 LIG     -0.192007
      8 C8         25.5685  108.7044   50.1188 PJ             0 LIG     -0.192007
      9 C9         28.9624  111.2986   50.5982 PK             0 LIG     0.086899
     10 C10        26.8989  110.7180   49.6312 PN             0 LIG     0.086899
     11 C11        28.9594  110.3520   51.5937 PO             0 LIG     0.115779
     12 C12        26.5849  109.6557   50.5254 PP             0 LIG     0.115779
     13 C13        27.1727  114.1662   54.7348 PQ             0 LIG     -0.319173
     14 C14        29.0170  113.5118   53.3468 PV             0 LIG     -0.319173
     15 C15        26.1202  113.1620   51.2585 PW             0 LIG     -0.018118
     16 C16        27.1708  113.0965   50.1363 PX             0 LIG     0.036275
     17 C17        26.6804  112.8195   52.6468 PY             0 LIG     0.012268
     18 N1         27.7722  111.7144   50.0402 PZ             0 LIG     -0.191498
     19 N2         27.5581  113.8655   53.2393 QB             0 LIG     0.153200
     20 S1         27.3987  109.6298   52.0993 QC             0 LIG     -0.201542
     21 H1         32.2795  112.0067   50.5074 QD             0 LIG     0.160898
     22 H2         24.7961  109.8391   47.0613 QF             0 LIG     0.160898
     23 H3         32.1218  110.6099   52.6280 QG             0 LIG     0.160898
     24 H4         24.1587  108.2569   48.5217 QH             0 LIG     0.160898
     25 H5         30.1920  112.6127   49.3568 QJ             0 LIG     0.134456
     26 H6         26.6700  111.7022   47.7016 QK             0 LIG     0.134456
     27 H7         30.0971  109.3066   53.0982 QL             0 LIG     0.174337
     28 H8         25.3720  107.8467   50.7078 QM             0 LIG     0.174337
     29 H9         26.0542  114.1739   54.7103 QN             0 LIG     0.158404
     30 H10        27.5152  115.1269   55.0381 QO             0 LIG     0.158404
     31 H11        27.5768  113.4211   55.4245 QP             0 LIG     0.158404
     32 H12        29.0289  112.4650   53.7829 QQ             0 LIG     0.158404
     33 H13        29.5968  114.2495   54.0028 QS             0 LIG     0.158404
     34 H14        29.5065  113.5065   52.3408 QT             0 LIG     0.158404
     35 H15        25.6393  114.1322   51.1667 QU             0 LIG     0.041463
     36 H16        25.3336  112.4862   51.1023 QV             0 LIG     0.041463
     37 H17        26.7589  113.2998   49.1140 QW             0 LIG     0.085391
     38 H18        27.8996  113.8931   50.2025 QX             0 LIG     0.085391
     39 H19        25.7468  112.8033   53.2124 QY             0 LIG     0.073022
     40 H20        27.1601  111.9237   52.6648 QZ             0 LIG     0.073022
     41 H21        27.5624  114.7685   52.8067 RB             0 LIG     0.265740
@<TRIPOS>BOND
        1  1  3  2
        2  1  5  1
        3  1  21  1
        4  2  4  2
        5  2  6  1
        6  2  22  1
        7  3  7  1
        8  3  23  1
        9  4  8  1
        10  4  24  1
        11  5  9  2
        12  5  25  1
        13  6  10  2
        14  6  26  1
        15  7  11  2
        16  7  27  1
        17  8  12  2
        18  8  28  1
        19  9  11  1
        20  9  18  1
        21  10  12  1
        22  10  18  1
        23  11  20  1
        24  12  20  1
        25  13  19  1
        26  13  29  1
        27  13  30  1
        28  13  31  1
        29  14  19  1
        30  14  32  1
        31  14  33  1
        32  14  34  1
        33  15  16  1
        34  15  17  1
        35  15  35  1
        36  15  36  1
        37  16  18  1
        38  16  37  1
        39  16  38  1
        40  17  19  1
        41  17  39  1
        42  17  40  1
        43  19  41  1
@<TRIPOS>SUBSTRUCTURE
       1 LIG             1 RESIDUE    0 **** ROOT      0

