PMZ1apsS
                    3D
 Schrodinger Suite 2019-4.
 41 43  0  0  1  0            999 V2000
   31.3426  111.7419   50.9088 C   0  0  0  0  0  0
   25.2936  109.9525   48.0353 C   0  0  0  0  0  0
   31.2548  110.8121   52.0036 C   0  0  0  0  0  0
   24.9555  108.8768   48.8718 C   0  0  0  0  0  0
   30.1734  111.9654   50.2453 C   0  0  0  0  0  0
   26.2855  110.8472   48.3859 C   0  0  0  0  0  0
   30.1452  110.0273   52.2641 C   0  0  0  0  0  0
   25.5685  108.7044   50.1188 C   0  0  0  0  0  0
   28.9624  111.2986   50.5982 C   0  0  0  0  0  0
   26.8989  110.7180   49.6312 C   0  0  0  0  0  0
   28.9594  110.3520   51.5937 C   0  0  0  0  0  0
   26.5849  109.6557   50.5254 C   0  0  0  0  0  0
   27.1727  114.1662   54.7348 C   0  0  0  0  0  0
   29.0170  113.5118   53.3468 C   0  0  0  0  0  0
   26.1202  113.1620   51.2585 C   0  0  0  0  0  0
   27.1708  113.0965   50.1363 C   0  0  0  0  0  0
   26.6804  112.8195   52.6468 C   0  0  0  0  0  0
   27.7722  111.7144   50.0402 N   0  0  0  0  0  0
   27.5581  113.8655   53.2393 N   0  3  0  0  0  0
   27.3987  109.6298   52.0993 S   0  0  0  0  0  0
   32.2795  112.0067   50.5074 H   0  0  0  0  0  0
   24.7961  109.8391   47.0613 H   0  0  0  0  0  0
   32.1218  110.6099   52.6280 H   0  0  0  0  0  0
   24.1587  108.2569   48.5217 H   0  0  0  0  0  0
   30.1920  112.6127   49.3568 H   0  0  0  0  0  0
   26.6700  111.7022   47.7016 H   0  0  0  0  0  0
   30.0971  109.3066   53.0982 H   0  0  0  0  0  0
   25.3720  107.8467   50.7078 H   0  0  0  0  0  0
   26.0542  114.1739   54.7103 H   0  0  0  0  0  0
   27.5152  115.1269   55.0381 H   0  0  0  0  0  0
   27.5768  113.4211   55.4245 H   0  0  0  0  0  0
   29.0289  112.4650   53.7829 H   0  0  0  0  0  0
   29.5968  114.2495   54.0028 H   0  0  0  0  0  0
   29.5065  113.5065   52.3408 H   0  0  0  0  0  0
   25.6393  114.1322   51.1667 H   0  0  0  0  0  0
   25.3336  112.4862   51.1023 H   0  0  0  0  0  0
   26.7589  113.2998   49.1140 H   0  0  0  0  0  0
   27.8996  113.8931   50.2025 H   0  0  0  0  0  0
   25.7468  112.8033   53.2124 H   0  0  0  0  0  0
   27.1601  111.9237   52.6648 H   0  0  0  0  0  0
   27.5624  114.7685   52.8067 H   0  0  0  0  0  0
  1  3  2  0  0  0
  1  5  1  0  0  0
  1 21  1  0  0  0
  2  4  2  0  0  0
  2  6  1  0  0  0
  2 22  1  0  0  0
  3  7  1  0  0  0
  3 23  1  0  0  0
  4  8  1  0  0  0
  4 24  1  0  0  0
  5  9  2  0  0  0
  5 25  1  0  0  0
  6 10  2  0  0  0
  6 26  1  0  0  0
  7 11  2  0  0  0
  7 27  1  0  0  0
  8 12  2  0  0  0
  8 28  1  0  0  0
  9 11  1  0  0  0
  9 18  1  0  0  0
 10 12  1  0  0  0
 10 18  1  0  0  0
 11 20  1  0  0  0
 12 20  1  0  0  0
 13 19  1  0  0  0
 13 29  1  0  0  0
 13 30  1  0  0  0
 13 31  1  0  0  0
 14 19  1  0  0  0
 14 32  1  0  0  0
 14 33  1  0  0  0
 14 34  1  0  0  0
 15 16  1  0  0  0
 15 17  1  0  0  0
 15 35  1  0  0  0
 15 36  1  0  0  0
 16 18  1  0  0  0
 16 37  1  0  0  0
 16 38  1  0  0  0
 17 19  1  0  0  0
 17 39  1  0  0  0
 17 40  1  0  0  0
 19 41  1  0  0  0
M  CHG  1  19   1
M  END
> <s_m_entry_id>
595

> <s_m_Source_Path>
/u1/users/egallicchio/Dropbox/sims/SAMPL9/work/FFEngine/postc/mCDpsSf/ligands

> <s_m_Source_File>
PMZ1apsS-q.sdf

> <i_m_Source_File_Index>
1

> <r_epik_Ionization_Penalty>
  0.0034

> <r_epik_State_Penalty>
  0.0024

> <i_epik_Tot_Q>
1

> <s_m_job_name>
ligprep_4

> <i_f3d_flags>
0

$$$$
