@<TRIPOS>MOLECULE
LIG
52 55
SMALL
USER_CHARGES
@<TRIPOS>ATOM
      1 C1         31.4157  111.4496   51.0659 AA             0 LIG     -0.151259
      2 C2         31.3337  110.3822   51.9788 AB             0 LIG     -0.151259
      3 C3         30.2479  111.9660   50.4724 AD             0 LIG     -0.219304
      4 C4         30.0778  109.8423   52.3095 AE             0 LIG     -0.194592
      5 C5         25.6321  108.7579   50.1520 AF             0 LIG     -0.194592
      6 C6         25.0138  108.8232   48.8929 AH             0 LIG     -0.194592
      7 C7         26.1529  110.9351   48.4527 AI             0 LIG     -0.277127
      8 C8         28.9794  111.4005   50.7547 AJ             0 LIG     0.085655
      9 C9         26.8171  110.8646   49.6976 AK             0 LIG     0.085655
     10 C10        28.9115  110.3416   51.6987 AN             0 LIG     0.112307
     11 C11        26.5356  109.7647   50.5480 AO             0 LIG     0.112307
     12 C12        25.2703  109.9129   48.0464 AP             0 LIG     0.162844
     13 C13        25.0776  113.6123   54.5729 AQ             0 LIG     -0.032521
     14 C14        26.3115  114.3307   55.1259 AV             0 LIG     -0.034488
     15 C15        25.0302  113.7617   53.0460 AW             0 LIG     -0.055761
     16 C16        27.5778  113.7811   54.4609 AX             0 LIG     -0.006430
     17 C17        26.3351  113.2943   52.3473 AY             1 LIG     0.133288
     18 C18        28.8388  113.5049   52.3921 AZ             0 LIG     -0.176010
     19 C19        24.2486  108.2152   45.9283 BB             0 LIG     -0.159669
     20 C20        26.2475  113.5914   50.8234 BC             0 LIG     -0.036260
     21 C21        27.5065  113.2255   50.0019 BD             0 LIG     0.036576
     22 N1         27.8299  111.7932   50.0378 BF             0 LIG     -0.187743
     23 N2         27.5414  113.9364   52.9792 BG             2 LIG     -0.192054
     24 S1         27.3643  109.5906   52.0907 BH             0 LIG     -0.197945
     25 S2         24.5321  109.9278   46.4412 BJ             0 LIG     -0.259338
     26 H1         32.3847  111.8405   50.7890 BK             0 LIG     0.162335
     27 H2         32.2339  109.9589   52.4024 BL             0 LIG     0.162335
     28 H3         30.3558  112.7551   49.7507 BM             0 LIG     0.137375
     29 H4         30.0144  109.0068   52.9892 BN             0 LIG     0.176356
     30 H5         25.4589  107.9048   50.7917 BO             0 LIG     0.176356
     31 H6         24.3733  108.0177   48.5594 BP             0 LIG     0.176356
     32 H7         26.3842  111.7262   47.7660 BQ             0 LIG     0.141006
     33 H8         25.1039  112.5548   54.8501 BS             0 LIG     0.046484
     34 H9         24.1699  114.0251   55.0205 BT             0 LIG     0.046484
     35 H10        26.2228  115.4071   54.9631 BU             0 LIG     0.051372
     36 H11        26.3714  114.1898   56.2086 BV             0 LIG     0.051372
     37 H12        24.1786  113.1946   52.6647 BW             0 LIG     0.048966
     38 H13        24.8266  114.8049   52.8032 BX             0 LIG     0.048966
     39 H14        28.4405  114.3102   54.8669 BY             0 LIG     0.095743
     40 H15        27.7018  112.7289   54.7211 BZ             0 LIG     0.095743
     41 H16        26.4207  112.2136   52.4887 CB             0 LIG     0.086415
     42 H17        28.9304  112.4191   52.3977 CI             0 LIG     0.129026
     43 H18        29.6758  113.9124   52.9568 CJ             0 LIG     0.129026
     44 H19        28.9772  113.8593   51.3717 CK             0 LIG     0.129026
     45 H20        23.8841  108.1942   44.9007 CM             0 LIG     0.110256
     46 H21        23.5031  107.7370   46.5628 CN             0 LIG     0.110256
     47 H22        25.1799  107.6517   45.9775 CT             0 LIG     0.110256
     48 H23        25.3796  113.0722   50.4137 CW             0 LIG     0.037623
     49 H24        26.0720  114.6461   50.6601 DA             0 LIG     0.037623
     50 H25        27.3739  113.5142   48.9578 DB             0 LIG     0.084613
     51 H26        28.3717  113.7919   50.3556 DC             0 LIG     0.084613
     52 H27        27.4550  114.9289   52.8084 DD             0 LIG     0.326325
@<TRIPOS>BOND
        1  1  2  2
        2  1  3  1
        3  1  26  1
        4  2  4  1
        5  2  27  1
        6  3  8  2
        7  3  28  1
        8  4  10  2
        9  4  29  1
        10  5  6  1
        11  5  11  2
        12  5  30  1
        13  6  12  2
        14  6  31  1
        15  7  9  2
        16  7  12  1
        17  7  32  1
        18  8  10  1
        19  8  22  1
        20  9  11  1
        21  9  22  1
        22  10  24  1
        23  11  24  1
        24  12  25  1
        25  13  14  1
        26  13  15  1
        27  13  33  1
        28  13  34  1
        29  14  16  1
        30  14  35  1
        31  14  36  1
        32  15  17  1
        33  15  37  1
        34  15  38  1
        35  16  23  1
        36  16  39  1
        37  16  40  1
        38  17  20  1
        39  17  23  1
        40  17  41  1
        41  18  23  1
        42  18  42  1
        43  18  43  1
        44  18  44  1
        45  19  25  1
        46  19  45  1
        47  19  46  1
        48  19  47  1
        49  20  21  1
        50  20  48  1
        51  20  49  1
        52  21  22  1
        53  21  50  1
        54  21  51  1
        55  23  52  1
@<TRIPOS>SUBSTRUCTURE
       1 LIG             1 RESIDUE    0 **** ROOT      0

