@<TRIPOS>MOLECULE
LIG
52 55
SMALL
USER_CHARGES
@<TRIPOS>ATOM
      1 C1         31.4040  111.4792   51.0715 AA             0 LIG     -0.151741
      2 C2         31.3200  110.4471   52.0268 AB             0 LIG     -0.151741
      3 C3         30.2372  111.9536   50.4390 AD             0 LIG     -0.220252
      4 C4         30.0693  109.8951   52.3510 AE             0 LIG     -0.194616
      5 C5         25.6189  108.7719   50.1667 AF             0 LIG     -0.194616
      6 C6         24.9945  108.8414   48.9097 AH             0 LIG     -0.194616
      7 C7         26.1671  110.9353   48.4442 AI             0 LIG     -0.276550
      8 C8         28.9789  111.3855   50.7313 AJ             0 LIG     0.084603
      9 C9         26.8283  110.8553   49.6897 AK             0 LIG     0.084603
     10 C10        28.9087  110.3496   51.6990 AN             0 LIG     0.112404
     11 C11        26.5431  109.7613   50.5449 AO             0 LIG     0.112404
     12 C12        25.2728  109.9166   48.0459 AP             0 LIG     0.163041
     13 C13        25.2843  113.9936   54.3065 AQ             0 LIG     -0.029878
     14 C14        26.2256  115.1490   54.6856 AV             0 LIG     -0.034345
     15 C15        26.0744  112.7503   53.8681 AW             0 LIG     -0.054555
     16 C16        27.2762  115.4160   53.5932 AX             0 LIG     0.011138
     17 C17        27.1135  113.0712   52.7681 AY             1 LIG     0.149935
     18 C18        29.2247  114.3886   52.4378 AZ             0 LIG     -0.244054
     19 C19        23.4486  108.4758   46.2934 BB             0 LIG     -0.160589
     20 C20        26.4707  113.3967   51.3890 BC             0 LIG     -0.033239
     21 C21        27.4186  113.1917   50.1895 BD             0 LIG     0.039575
     22 N1         27.8247  111.7869   50.0370 BF             0 LIG     -0.187004
     23 N2         28.0099  114.1624   53.2647 BG             1 LIG     -0.070769
     24 S1         27.3670  109.5932   52.0920 BH             0 LIG     -0.197900
     25 S2         24.5091  109.9362   46.4544 BJ             0 LIG     -0.258446
     26 H1         32.3638  111.9037   50.8212 BK             0 LIG     0.161610
     27 H2         32.2133  110.0695   52.5027 BL             0 LIG     0.161610
     28 H3         30.3372  112.7276   49.6988 BM             0 LIG     0.136076
     29 H4         29.9925  109.1104   53.0890 BN             0 LIG     0.176324
     30 H5         25.4132  107.9487   50.8333 BO             0 LIG     0.176324
     31 H6         24.3118  108.0602   48.6063 BP             0 LIG     0.176324
     32 H7         26.3912  111.7439   47.7745 BQ             0 LIG     0.140791
     33 H8         24.6443  113.7493   55.1562 BS             0 LIG     0.046381
     34 H9         24.6081  114.3115   53.5150 BT             0 LIG     0.046381
     35 H10        25.6419  116.0534   54.8710 BU             0 LIG     0.049941
     36 H11        26.7249  114.9229   55.6302 BV             0 LIG     0.049941
     37 H12        26.5879  112.3355   54.7385 BW             0 LIG     0.046927
     38 H13        25.3863  111.9702   53.5392 BX             0 LIG     0.046927
     39 H14        26.8052  115.8260   52.6978 BY             0 LIG     0.081886
     40 H15        27.9783  116.1721   53.9480 BZ             0 LIG     0.081886
     41 H16        27.7444  112.1814   52.6409 CB             0 LIG     0.038290
     42 H17        28.9928  114.8783   51.4879 CI             0 LIG     0.142123
     43 H18        29.7373  113.4487   52.2250 CJ             0 LIG     0.142123
     44 H19        29.9301  115.0313   52.9728 CK             0 LIG     0.142123
     45 H20        23.0061  108.4543   45.2970 CM             0 LIG     0.110774
     46 H21        22.6382  108.4988   47.0213 CN             0 LIG     0.110774
     47 H22        24.0311  107.5647   46.4299 CT             0 LIG     0.110774
     48 H23        25.5751  112.7986   51.2387 CW             0 LIG     0.042019
     49 H24        26.1320  114.4311   51.3653 DA             0 LIG     0.042019
     50 H25        26.9418  113.5161   49.2624 DB             0 LIG     0.082888
     51 H26        28.2981  113.8268   50.2961 DC             0 LIG     0.082888
     52 H27        28.3608  113.8198   54.1481 DD             0 LIG     0.271082
@<TRIPOS>BOND
        1  1  2  2
        2  1  3  1
        3  1  26  1
        4  2  4  1
        5  2  27  1
        6  3  8  2
        7  3  28  1
        8  4  10  2
        9  4  29  1
        10  5  6  1
        11  5  11  2
        12  5  30  1
        13  6  12  2
        14  6  31  1
        15  7  9  2
        16  7  12  1
        17  7  32  1
        18  8  10  1
        19  8  22  1
        20  9  11  1
        21  9  22  1
        22  10  24  1
        23  11  24  1
        24  12  25  1
        25  13  14  1
        26  13  15  1
        27  13  33  1
        28  13  34  1
        29  14  16  1
        30  14  35  1
        31  14  36  1
        32  15  17  1
        33  15  37  1
        34  15  38  1
        35  16  23  1
        36  16  39  1
        37  16  40  1
        38  17  20  1
        39  17  23  1
        40  17  41  1
        41  18  23  1
        42  18  42  1
        43  18  43  1
        44  18  44  1
        45  19  25  1
        46  19  45  1
        47  19  46  1
        48  19  47  1
        49  20  21  1
        50  20  48  1
        51  20  49  1
        52  21  22  1
        53  21  50  1
        54  21  51  1
        55  23  52  1
@<TRIPOS>SUBSTRUCTURE
       1 LIG             1 RESIDUE    0 **** ROOT      0

