TDZNR1apsS
                    3D
 Schrodinger Suite 2019-4.
 52 55  0  0  1  0            999 V2000
   31.4157  111.4496   51.0659 C   0  0  0  0  0  0
   31.3337  110.3822   51.9788 C   0  0  0  0  0  0
   30.2479  111.9660   50.4724 C   0  0  0  0  0  0
   30.0778  109.8423   52.3095 C   0  0  0  0  0  0
   25.6321  108.7579   50.1520 C   0  0  0  0  0  0
   25.0138  108.8232   48.8929 C   0  0  0  0  0  0
   26.1529  110.9351   48.4527 C   0  0  0  0  0  0
   28.9794  111.4005   50.7547 C   0  0  0  0  0  0
   26.8171  110.8646   49.6976 C   0  0  0  0  0  0
   28.9115  110.3416   51.6987 C   0  0  0  0  0  0
   26.5356  109.7647   50.5480 C   0  0  0  0  0  0
   25.2703  109.9129   48.0464 C   0  0  0  0  0  0
   25.0776  113.6123   54.5729 C   0  0  0  0  0  0
   26.3115  114.3307   55.1259 C   0  0  0  0  0  0
   25.0302  113.7617   53.0460 C   0  0  0  0  0  0
   27.5778  113.7811   54.4609 C   0  0  0  0  0  0
   26.3351  113.2943   52.3473 C   0  0  1  0  0  0
   28.8388  113.5049   52.3921 C   0  0  0  0  0  0
   24.2486  108.2152   45.9283 C   0  0  0  0  0  0
   26.2475  113.5914   50.8234 C   0  0  0  0  0  0
   27.5065  113.2255   50.0019 C   0  0  0  0  0  0
   27.8299  111.7932   50.0378 N   0  0  0  0  0  0
   27.5414  113.9364   52.9792 N   0  3  2  0  0  0
   27.3643  109.5906   52.0907 S   0  0  0  0  0  0
   24.5321  109.9278   46.4412 S   0  0  0  0  0  0
   32.3847  111.8405   50.7890 H   0  0  0  0  0  0
   32.2339  109.9589   52.4024 H   0  0  0  0  0  0
   30.3558  112.7551   49.7507 H   0  0  0  0  0  0
   30.0144  109.0068   52.9892 H   0  0  0  0  0  0
   25.4589  107.9048   50.7917 H   0  0  0  0  0  0
   24.3733  108.0177   48.5594 H   0  0  0  0  0  0
   26.3842  111.7262   47.7660 H   0  0  0  0  0  0
   25.1039  112.5548   54.8501 H   0  0  0  0  0  0
   24.1699  114.0251   55.0205 H   0  0  0  0  0  0
   26.2228  115.4071   54.9631 H   0  0  0  0  0  0
   26.3714  114.1898   56.2086 H   0  0  0  0  0  0
   24.1786  113.1946   52.6647 H   0  0  0  0  0  0
   24.8266  114.8049   52.8032 H   0  0  0  0  0  0
   28.4405  114.3102   54.8669 H   0  0  0  0  0  0
   27.7018  112.7289   54.7211 H   0  0  0  0  0  0
   26.4207  112.2136   52.4887 H   0  0  0  0  0  0
   28.9304  112.4191   52.3977 H   0  0  0  0  0  0
   29.6758  113.9124   52.9568 H   0  0  0  0  0  0
   28.9772  113.8593   51.3717 H   0  0  0  0  0  0
   23.8841  108.1942   44.9007 H   0  0  0  0  0  0
   23.5031  107.7370   46.5628 H   0  0  0  0  0  0
   25.1799  107.6517   45.9775 H   0  0  0  0  0  0
   25.3796  113.0722   50.4137 H   0  0  0  0  0  0
   26.0720  114.6461   50.6601 H   0  0  0  0  0  0
   27.3739  113.5142   48.9578 H   0  0  0  0  0  0
   28.3717  113.7919   50.3556 H   0  0  0  0  0  0
   27.4550  114.9289   52.8084 H   0  0  0  0  0  0
  1  2  2  0  0  0
  1  3  1  0  0  0
  1 26  1  0  0  0
  2  4  1  0  0  0
  2 27  1  0  0  0
  3  8  2  0  0  0
  3 28  1  0  0  0
  4 10  2  0  0  0
  4 29  1  0  0  0
  5  6  2  0  0  0
  5 11  1  0  0  0
  5 30  1  0  0  0
  6 12  1  0  0  0
  6 31  1  0  0  0
  7  9  1  0  0  0
  7 12  2  0  0  0
  7 32  1  0  0  0
  8 10  1  0  0  0
  8 22  1  0  0  0
  9 11  2  0  0  0
  9 22  1  0  0  0
 10 24  1  0  0  0
 11 24  1  0  0  0
 12 25  1  0  0  0
 13 14  1  0  0  0
 13 15  1  0  0  0
 13 33  1  0  0  0
 13 34  1  0  0  0
 14 16  1  0  0  0
 14 35  1  0  0  0
 14 36  1  0  0  0
 15 17  1  0  0  0
 15 37  1  0  0  0
 15 38  1  0  0  0
 16 23  1  0  0  0
 16 39  1  0  0  0
 16 40  1  0  0  0
 17 20  1  0  0  0
 17 23  1  0  0  0
 17 41  1  0  0  0
 18 23  1  0  0  0
 18 42  1  0  0  0
 18 43  1  0  0  0
 18 44  1  0  0  0
 19 25  1  0  0  0
 19 45  1  0  0  0
 19 46  1  0  0  0
 19 47  1  0  0  0
 20 21  1  0  0  0
 20 48  1  0  0  0
 20 49  1  0  0  0
 21 22  1  0  0  0
 21 50  1  0  0  0
 21 51  1  0  0  0
 23 52  1  0  0  0
M  CHG  1  23   1
M  END
> <s_m_entry_id>
603

> <s_m_Source_Path>
/home/emilio/Dropbox/SAMPL9-eglab/mCD/ligsdfs

> <s_m_Source_File>
TDZNR1apsS.sdf

> <i_m_Source_File_Index>
1

> <r_epik_Ionization_Penalty>
  0.0017

> <r_epik_State_Penalty>
  0.0011

> <i_epik_Tot_Q>
1

> <s_m_job_name>
ligprep_4

> <i_f3d_flags>
0

$$$$
