@<TRIPOS>MOLECULE
LIG
50 53
SMALL
USER_CHARGES
@<TRIPOS>ATOM
      1 C1         31.3872  111.4855   51.2334 AA             0 LIG     -0.146946
      2 C2         31.2419  110.5653   52.2642 AB             0 LIG     -0.146946
      3 C3         30.2787  111.8719   50.4826 AD             0 LIG     -0.213882
      4 C4         29.9905  110.0193   52.5268 AE             0 LIG     -0.189563
      5 C5         25.5281  108.8736   50.2187 AF             0 LIG     -0.189563
      6 C6         24.8987  108.9304   48.9808 AH             0 LIG     -0.186283
      7 C7         26.2607  110.8291   48.3979 AI             0 LIG     -0.267664
      8 C8         28.9902  111.3543   50.7363 AJ             0 LIG     0.094519
      9 C9         26.9014  110.8159   49.6539 AK             0 LIG     0.094519
     10 C10        28.8793  110.3960   51.7685 AN             0 LIG     0.116195
     11 C11        26.5251  109.7921   50.5503 AO             0 LIG     0.116195
     12 C12        25.2685  109.9052   48.0532 AP             0 LIG     -0.069395
     13 C13        28.0817  113.0004   54.3824 AQ             0 LIG     -0.041121
     14 C14        26.9236  114.9668   53.4961 AV             0 LIG     -0.041121
     15 C15        29.1334  113.9288   55.0011 AW             0 LIG     0.063286
     16 C16        28.0085  115.8753   54.1225 AX             0 LIG     0.063286
     17 C17        26.2900  112.9379   51.2032 AY             0 LIG     -0.016690
     18 C18        27.2757  113.1256   50.0880 AZ             0 LIG     0.028631
     19 C19        26.5629  112.5662   52.5948 BB             0 LIG     -0.059139
     20 N1         27.8398  111.8041   50.0406 BC             0 LIG     -0.187888
     21 N2         27.4776  113.5912   53.1893 BD             0 LIG     -0.035261
     22 N3         28.5657  115.2418   55.3138 BF             0 LIG     -0.795699
     23 F1         25.5390  109.8588   45.7282 BG             0 LIG     -0.251326
     24 F2         24.0120  111.1662   46.5351 BH             0 LIG     -0.251326
     25 F3         23.6950  109.0286   46.4907 BJ             0 LIG     -0.251326
     26 S1         27.3560  109.5870   52.0810 BK             0 LIG     -0.162784
     27 C20        24.6099  109.9825   46.6767 BL             0 LIG     0.697269
     28 H1         32.3587  111.9056   51.0184 BM             0 LIG     0.171877
     29 H2         32.0986  110.2654   52.8497 BN             0 LIG     0.171877
     30 H3         30.4565  112.5962   49.7043 BO             0 LIG     0.150837
     31 H4         29.8896  109.2842   53.3123 BP             0 LIG     0.186066
     32 H5         25.2516  108.0958   50.9159 BQ             0 LIG     0.186066
     33 H6         24.1353  108.2031   48.7470 BS             0 LIG     0.189607
     34 H7         26.5141  111.5610   47.6505 BT             0 LIG     0.149674
     35 H8         28.5654  112.0593   54.0982 BU             0 LIG     0.093433
     36 H9         27.2742  112.7861   55.0860 BV             0 LIG     0.093433
     37 H10        26.0581  114.8925   54.1523 BW             0 LIG     0.093433
     38 H11        26.5913  115.5369   52.6380 BX             0 LIG     0.093433
     39 H12        29.5014  113.4653   55.9181 BY             0 LIG     0.105981
     40 H13        29.9810  114.0568   54.3228 BZ             0 LIG     0.105981
     41 H14        28.8180  116.0829   53.4170 CB             0 LIG     0.105981
     42 H15        27.5916  116.8538   54.3912 CI             0 LIG     0.105981
     43 H16        25.4937  113.6825   51.1647 CJ             0 LIG     0.044237
     44 H17        26.0603  111.8792   51.0356 CK             0 LIG     0.044237
     45 H18        26.8303  113.4563   49.1364 CM             0 LIG     0.093748
     46 H19        28.0365  113.8612   50.3806 CN             0 LIG     0.093748
     47 H20        25.6493  112.4905   53.1912 CT             0 LIG     0.094892
     48 H21        26.9977  111.5632   52.5975 CW             0 LIG     0.094892
     49 H22        27.9085  115.2317   56.0846 DA             0 LIG     0.419755
     50 H23        28.2206  113.7377   52.5187 DB             0 LIG     0.340852
@<TRIPOS>BOND
        1  1  2  2
        2  1  3  1
        3  1  28  1
        4  2  4  1
        5  2  29  1
        6  3  8  2
        7  3  30  1
        8  4  10  2
        9  4  31  1
        10  5  6  1
        11  5  11  2
        12  5  32  1
        13  6  12  2
        14  6  33  1
        15  7  9  2
        16  7  12  1
        17  7  34  1
        18  8  10  1
        19  8  20  1
        20  9  11  1
        21  9  20  1
        22  10  26  1
        23  11  26  1
        24  12  27  1
        25  13  15  1
        26  13  21  1
        27  13  35  1
        28  13  36  1
        29  14  16  1
        30  14  21  1
        31  14  37  1
        32  14  38  1
        33  15  22  1
        34  15  39  1
        35  15  40  1
        36  16  22  1
        37  16  41  1
        38  16  42  1
        39  17  18  1
        40  17  19  1
        41  17  43  1
        42  17  44  1
        43  18  20  1
        44  18  45  1
        45  18  46  1
        46  19  21  1
        47  19  47  1
        48  19  48  1
        49  21  50  1
        50  22  49  1
        51  23  27  1
        52  24  27  1
        53  25  27  1
@<TRIPOS>SUBSTRUCTURE
       1 LIG             1 RESIDUE    0 **** ROOT      0

