@<TRIPOS>MOLECULE
LIG
50 53
SMALL
USER_CHARGES
@<TRIPOS>ATOM
      1 C1         31.3205  111.6986   51.4425 AA             0 LIG     -0.148793
      2 C2         31.1657  110.7844   52.4775 AB             0 LIG     -0.148793
      3 C3         30.2389  112.0143   50.6223 AD             0 LIG     -0.214109
      4 C4         29.9329  110.1729   52.6756 AE             0 LIG     -0.192215
      5 C5         25.5355  108.8652   50.2133 AF             0 LIG     -0.192215
      6 C6         24.9037  108.9255   48.9765 AH             0 LIG     -0.190417
      7 C7         26.2583  110.8300   48.3989 AI             0 LIG     -0.264320
      8 C8         28.9697  111.4287   50.8084 AJ             0 LIG     0.095370
      9 C9         26.9039  110.8114   49.6534 AK             0 LIG     0.095370
     10 C10        28.8502  110.4773   51.8469 AN             0 LIG     0.116137
     11 C11        26.5300  109.7855   50.5475 AO             0 LIG     0.116137
     12 C12        25.2681  109.9055   48.0522 AP             0 LIG     -0.071581
     13 C13        27.8652  113.0314   54.5960 AQ             0 LIG     0.037365
     14 C14        27.0103  114.9921   53.4303 AV             0 LIG     0.037365
     15 C15        28.8098  113.9318   55.4092 AW             0 LIG     0.086222
     16 C16        27.9407  115.9066   54.2573 AX             0 LIG     0.086222
     17 C17        26.3360  113.1025   51.2235 AY             0 LIG     0.011333
     18 C18        27.2696  113.1306   50.0304 AZ             0 LIG     0.026484
     19 C19        26.6427  112.6893   52.6275 BB             0 LIG     0.037611
     20 N1         27.8396  111.8030   50.0413 BC             0 LIG     -0.178062
     21 N2         27.5606  113.6426   53.2921 BD             0 LIG     -0.528710
     22 N3         28.2309  115.2845   55.5663 BF             0 LIG     -0.527743
     23 F1         24.1199  111.2286   46.4932 BG             0 LIG     -0.255693
     24 F2         23.5858  109.1365   46.5496 BH             0 LIG     -0.255693
     25 F3         25.4950  109.7385   45.7319 BJ             0 LIG     -0.255693
     26 S1         27.3568  109.5878   52.0813 BK             0 LIG     -0.174420
     27 C20        24.5969  109.9973   46.6827 BL             0 LIG     0.695255
     28 H1         32.2788  112.1684   51.2770 BM             0 LIG     0.167075
     29 H2         32.0017  110.5400   53.1158 BN             0 LIG     0.167075
     30 H3         30.4253  112.7317   49.8423 BO             0 LIG     0.157041
     31 H4         29.8260  109.4437   53.4657 BP             0 LIG     0.180382
     32 H5         25.2599  108.0856   50.9087 BQ             0 LIG     0.180382
     33 H6         24.1405  108.1980   48.7419 BS             0 LIG     0.183084
     34 H7         26.5009  111.5757   47.6591 BT             0 LIG     0.171935
     35 H8         28.3481  112.0633   54.4188 BU             0 LIG     0.086347
     36 H9         26.9135  112.8758   55.1066 BV             0 LIG     0.086347
     37 H10        26.0194  114.9193   53.8827 BW             0 LIG     0.086347
     38 H11        26.8818  115.4510   52.4405 BX             0 LIG     0.086347
     39 H12        28.9426  113.4802   56.4018 BY             0 LIG     0.119217
     40 H13        29.8012  114.0045   54.9502 BZ             0 LIG     0.119217
     41 H14        28.8785  116.1126   53.7304 CB             0 LIG     0.119217
     42 H15        27.4569  116.8750   54.4194 CI             0 LIG     0.119217
     43 H16        26.5349  114.0770   51.4347 CJ             0 LIG     0.035265
     44 H17        25.2828  113.0425   50.9772 CK             0 LIG     0.035265
     45 H18        26.7900  113.4312   49.1038 CM             0 LIG     0.085093
     46 H19        28.0301  113.8798   50.2538 CN             0 LIG     0.085093
     47 H20        25.7341  112.5049   53.1882 CT             0 LIG     0.068063
     48 H21        27.1542  111.7417   52.5087 CW             0 LIG     0.068063
     49 H22        27.3620  115.2041   56.0756 DA             0 LIG     0.375757
     50 H23        28.8656  115.8691   56.0907 DB             0 LIG     0.375757
@<TRIPOS>BOND
        1  1  2  2
        2  1  3  1
        3  1  28  1
        4  2  4  1
        5  2  29  1
        6  3  8  2
        7  3  30  1
        8  4  10  2
        9  4  31  1
        10  5  6  1
        11  5  11  2
        12  5  32  1
        13  6  12  2
        14  6  33  1
        15  7  9  2
        16  7  12  1
        17  7  34  1
        18  8  10  1
        19  8  20  1
        20  9  11  1
        21  9  20  1
        22  10  26  1
        23  11  26  1
        24  12  27  1
        25  13  15  1
        26  13  21  1
        27  13  35  1
        28  13  36  1
        29  14  16  1
        30  14  21  1
        31  14  37  1
        32  14  38  1
        33  15  22  1
        34  15  39  1
        35  15  40  1
        36  16  22  1
        37  16  41  1
        38  16  42  1
        39  17  18  1
        40  17  19  1
        41  17  43  1
        42  17  44  1
        43  18  20  1
        44  18  45  1
        45  18  46  1
        46  19  21  1
        47  19  47  1
        48  19  48  1
        49  22  49  1
        50  22  50  1
        51  23  27  1
        52  24  27  1
        53  25  27  1
@<TRIPOS>SUBSTRUCTURE
       1 LIG             1 RESIDUE    0 **** ROOT      0

