CPZ1assS
                    3D
 Structure written by MMmdl.
 41 43  0  0  1  0            999 V2000
   33.2445  109.6889   44.5696 C   0  0  0  0  0  0
   34.3094  109.2005   43.7882 C   0  0  0  0  0  0
   31.9297  109.2401   44.3330 C   0  0  0  0  0  0
   34.0586  108.2623   42.7696 C   0  0  0  0  0  0
   30.4009  106.8133   39.4252 C   0  0  0  0  0  0
   29.1136  107.1838   39.0006 C   0  0  0  0  0  0
   28.6572  108.1095   41.2119 C   0  0  0  0  0  0
   31.6642  108.3112   43.2994 C   0  0  0  0  0  0
   29.9284  107.6960   41.6686 C   0  0  0  0  0  0
   32.7444  107.8209   42.5221 C   0  0  0  0  0  0
   30.8122  107.0791   40.7461 C   0  0  0  0  0  0
   28.2474  107.8474   39.8888 C   0  0  0  0  0  0
   28.7090  105.0345   41.7995 C   0  0  0  0  0  0
   29.8981  102.9144   42.1076 C   0  0  0  0  0  0
   30.0390  105.8559   44.5827 C   0  0  0  0  0  0
   29.5714  107.2657   44.0837 C   0  0  0  0  0  0
   30.5356  104.8827   43.4733 C   0  0  0  0  0  0
   30.3493  107.9094   42.9986 N   0  0  0  0  0  0
   29.4378  104.1677   42.7589 N   0  3  0  0  0  0
   32.4668  106.6643   41.2103 S   0  0  0  0  0  0
   26.6754  108.3256   39.3701 Cl  0  0  0  0  0  0
   33.4343  110.4207   45.3407 H   0  0  0  0  0  0
   35.3159  109.5558   43.9593 H   0  0  0  0  0  0
   31.1279  109.6572   44.9228 H   0  0  0  0  0  0
   34.8700  107.8925   42.1607 H   0  0  0  0  0  0
   31.0855  106.3352   38.7399 H   0  0  0  0  0  0
   28.8014  106.9859   37.9857 H   0  0  0  0  0  0
   27.9889  108.6518   41.8596 H   0  0  0  0  0  0
   29.3917  105.4376   41.0515 H   0  0  0  0  0  0
   28.2359  105.8730   42.3087 H   0  0  0  0  0  0
   27.9267  104.4854   41.2720 H   0  0  0  0  0  0
   30.6571  103.1157   41.3524 H   0  0  0  0  0  0
   29.0795  102.3835   41.6195 H   0  0  0  0  0  0
   30.3311  102.2243   42.8307 H   0  0  0  0  0  0
   30.7464  105.9513   45.4037 H   0  0  0  0  0  0
   29.1739  105.3805   45.0427 H   0  0  0  0  0  0
   28.5186  107.2421   43.8064 H   0  0  0  0  0  0
   29.6227  107.9387   44.9394 H   0  0  0  0  0  0
   31.1535  105.4216   42.7490 H   0  0  0  0  0  0
   31.2090  104.1367   43.8871 H   0  0  0  0  0  0
   28.7595  103.8699   43.4503 H   0  0  0  0  0  0
  1  2  2  0  0  0
  1  3  1  0  0  0
  1 22  1  0  0  0
  2  4  1  0  0  0
  2 23  1  0  0  0
  3  8  2  0  0  0
  3 24  1  0  0  0
  4 10  2  0  0  0
  4 25  1  0  0  0
  5  6  2  0  0  0
  5 11  1  0  0  0
  5 26  1  0  0  0
  6 12  1  0  0  0
  6 27  1  0  0  0
  7  9  1  0  0  0
  7 12  2  0  0  0
  7 28  1  0  0  0
  8 10  1  0  0  0
  8 18  1  0  0  0
  9 11  2  0  0  0
  9 18  1  0  0  0
 10 20  1  0  0  0
 11 20  1  0  0  0
 12 21  1  0  0  0
 13 19  1  0  0  0
 13 29  1  0  0  0
 13 30  1  0  0  0
 13 31  1  0  0  0
 14 19  1  0  0  0
 14 32  1  0  0  0
 14 33  1  0  0  0
 14 34  1  0  0  0
 15 16  1  0  0  0
 15 17  1  0  0  0
 15 35  1  0  0  0
 15 36  1  0  0  0
 16 18  1  0  0  0
 16 37  1  0  0  0
 16 38  1  0  0  0
 17 19  1  0  0  0
 17 39  1  0  0  0
 17 40  1  0  0  0
 19 41  1  0  0  0
M  CHG  1  19   1
M  END
> <s_m_entry_id>
490

> <s_m_entry_name>
CPZ1assS.1

> <s_m_Source_Path>
/home/emilio/Dropbox/SAMPL9-eglab/mCD/ligsdfs

> <s_m_Source_File>
CPZ1assS.sdf

> <i_m_Source_File_Index>
1

> <r_epik_Ionization_Penalty>
  0.0036

> <r_epik_State_Penalty>
  0.0025

> <i_epik_Tot_Q>
1

> <s_m_job_name>
ligprep_4

> <chiral flag>
1

> <version>
0

> <i_f3d_flags>
0

> <s_m_subgroup_title>
bCDq->ssS d_copy1

> <s_m_subgroupid>
bCDq_copy1->ssS_copy2

> <b_m_subgroup_collapsed>
0

$$$$
