@<TRIPOS>MOLECULE
LIG
41 43
SMALL
USER_CHARGES
@<TRIPOS>ATOM
      1 C1         33.2445  109.6889   44.5696 AA             0 LIG     -0.148984
      2 C2         34.3094  109.2005   43.7882 AB             0 LIG     -0.148984
      3 C3         31.9297  109.2401   44.3330 AD             0 LIG     -0.216162
      4 C4         34.0586  108.2623   42.7696 AE             0 LIG     -0.191448
      5 C5         30.4009  106.8133   39.4252 AF             0 LIG     -0.191448
      6 C6         29.1136  107.1838   39.0006 AH             0 LIG     -0.201273
      7 C7         28.6572  108.1095   41.2119 AI             0 LIG     -0.282378
      8 C8         31.6642  108.3112   43.2994 AJ             0 LIG     0.090825
      9 C9         29.9284  107.6960   41.6686 AK             0 LIG     0.090825
     10 C10        32.7444  107.8209   42.5221 AN             0 LIG     0.113170
     11 C11        30.8122  107.0791   40.7461 AO             0 LIG     0.113170
     12 C12        28.2474  107.8474   39.8888 AP             0 LIG     0.139586
     13 C13        28.7090  105.0345   41.7995 AQ             0 LIG     -0.327670
     14 C14        29.8981  102.9144   42.1076 AV             0 LIG     -0.327670
     15 C15        30.0390  105.8559   44.5827 AW             0 LIG     -0.018552
     16 C16        29.5714  107.2657   44.0837 AX             0 LIG     0.030051
     17 C17        30.5356  104.8827   43.4733 AY             0 LIG     0.155353
     18 N1         30.3493  107.9094   42.9986 AZ             0 LIG     -0.186524
     19 N2         29.4378  104.1677   42.7589 BB             0 LIG     0.134459
     20 S1         32.4668  106.6643   41.2103 BC             0 LIG     -0.184949
     21 CL1        26.6754  108.3256   39.3701 BD             0 LIG     -0.163674
     22 H1         33.4343  110.4207   45.3407 BF             0 LIG     0.167367
     23 H2         35.3159  109.5558   43.9593 BG             0 LIG     0.167367
     24 H3         31.1279  109.6572   44.9228 BH             0 LIG     0.144463
     25 H4         34.8700  107.8925   42.1607 BJ             0 LIG     0.182657
     26 H5         31.0855  106.3352   38.7399 BK             0 LIG     0.182657
     27 H6         28.8014  106.9859   37.9857 BL             0 LIG     0.185066
     28 H7         27.9889  108.6518   41.8596 BM             0 LIG     0.159917
     29 H8         29.3917  105.4376   41.0515 BN             0 LIG     0.163775
     30 H9         28.2359  105.8730   42.3087 BO             0 LIG     0.163775
     31 H10        27.9267  104.4854   41.2720 BP             0 LIG     0.163775
     32 H11        30.6571  103.1157   41.3524 BQ             0 LIG     0.163775
     33 H12        29.0795  102.3835   41.6195 BS             0 LIG     0.163775
     34 H13        30.3311  102.2243   42.8307 BT             0 LIG     0.163775
     35 H14        30.7464  105.9513   45.4037 BU             0 LIG     0.042423
     36 H15        29.1739  105.3805   45.0427 BV             0 LIG     0.042423
     37 H16        28.5186  107.2421   43.8064 BW             0 LIG     0.092460
     38 H17        29.6227  107.9387   44.9394 BX             0 LIG     0.092460
     39 H18        31.1535  105.4216   42.7490 BY             0 LIG     0.021392
     40 H19        31.2090  104.1367   43.8871 BZ             0 LIG     0.021392
     41 H20        28.7595  103.8699   43.4503 CB             0 LIG     0.237587
@<TRIPOS>BOND
        1  1  2  2
        2  1  3  1
        3  1  22  1
        4  2  4  1
        5  2  23  1
        6  3  8  2
        7  3  24  1
        8  4  10  2
        9  4  25  1
        10  5  6  1
        11  5  11  2
        12  5  26  1
        13  6  12  2
        14  6  27  1
        15  7  9  2
        16  7  12  1
        17  7  28  1
        18  8  10  1
        19  8  18  1
        20  9  11  1
        21  9  18  1
        22  10  20  1
        23  11  20  1
        24  12  21  1
        25  13  19  1
        26  13  29  1
        27  13  30  1
        28  13  31  1
        29  14  19  1
        30  14  32  1
        31  14  33  1
        32  14  34  1
        33  15  16  1
        34  15  17  1
        35  15  35  1
        36  15  36  1
        37  16  18  1
        38  16  37  1
        39  16  38  1
        40  17  19  1
        41  17  39  1
        42  17  40  1
        43  19  41  1
@<TRIPOS>SUBSTRUCTURE
       1 LIG             1 RESIDUE    0 **** ROOT      0

