PMT1assS
                    3D
 Structure written by MMmdl.
 41 43  0  0  1  0            999 V2000
   33.3041  109.5255   44.6753 C   0  0  0  0  0  0
   28.2473  107.8471   39.8862 C   0  0  0  0  0  0
   34.3633  109.0164   43.9048 C   0  0  0  0  0  0
   29.1349  107.2395   38.9828 C   0  0  0  0  0  0
   31.9751  109.1481   44.3975 C   0  0  0  0  0  0
   28.6453  108.0858   41.2170 C   0  0  0  0  0  0
   34.0879  108.1222   42.8547 C   0  0  0  0  0  0
   30.4264  106.8862   39.4062 C   0  0  0  0  0  0
   31.6794  108.2504   43.3420 C   0  0  0  0  0  0
   29.9376  107.7136   41.6665 C   0  0  0  0  0  0
   32.7578  107.7496   42.5678 C   0  0  0  0  0  0
   30.8299  107.1202   40.7353 C   0  0  0  0  0  0
   30.7737  105.5442   45.9585 C   0  0  0  0  0  0
   31.1979  105.3581   42.4955 C   0  0  0  0  0  0
   29.2489  103.9923   42.9860 C   0  0  0  0  0  0
   29.5322  107.1584   43.9906 C   0  0  0  0  0  0
   29.9612  105.7515   44.6448 C   0  0  1  0  0  0
   30.3465  107.9118   43.0042 N   0  0  0  0  0  0
   30.3482  104.7899   43.5645 N   0  3  0  0  0  0
   32.4697  106.6620   41.2057 S   0  0  0  0  0  0
   33.5144  110.2323   45.4684 H   0  0  0  0  0  0
   27.2667  108.1529   39.5473 H   0  0  0  0  0  0
   35.3822  109.3176   44.1093 H   0  0  0  0  0  0
   28.8352  107.0644   37.9566 H   0  0  0  0  0  0
   31.1971  109.6144   44.9804 H   0  0  0  0  0  0
   27.9417  108.5911   41.8582 H   0  0  0  0  0  0
   34.9002  107.7432   42.2512 H   0  0  0  0  0  0
   31.1244  106.4525   38.7052 H   0  0  0  0  0  0
   30.4662  106.2133   46.7601 H   0  0  0  0  0  0
   31.8593  105.6413   45.8438 H   0  0  0  0  0  0
   30.6161  104.5419   46.3721 H   0  0  0  0  0  0
   30.6264  106.0079   41.8330 H   0  0  0  0  0  0
   31.6043  104.5553   41.8723 H   0  0  0  0  0  0
   32.0375  105.9207   42.8943 H   0  0  0  0  0  0
   28.5142  104.6227   42.4937 H   0  0  0  0  0  0
   28.7610  103.3696   43.7280 H   0  0  0  0  0  0
   29.6040  103.2915   42.2299 H   0  0  0  0  0  0
   28.5689  107.0507   43.5104 H   0  0  0  0  0  0
   29.3128  107.8397   44.7916 H   0  0  0  0  0  0
   28.9898  105.3847   44.9547 H   0  0  0  0  0  0
   30.9310  104.1145   44.0311 H   0  0  0  0  0  0
  1  3  2  0  0  0
  1  5  1  0  0  0
  1 21  1  0  0  0
  2  4  2  0  0  0
  2  6  1  0  0  0
  2 22  1  0  0  0
  3  7  1  0  0  0
  3 23  1  0  0  0
  4  8  1  0  0  0
  4 24  1  0  0  0
  5  9  2  0  0  0
  5 25  1  0  0  0
  6 10  2  0  0  0
  6 26  1  0  0  0
  7 11  2  0  0  0
  7 27  1  0  0  0
  8 12  2  0  0  0
  8 28  1  0  0  0
  9 11  1  0  0  0
  9 18  1  0  0  0
 10 12  1  0  0  0
 10 18  1  0  0  0
 11 20  1  0  0  0
 12 20  1  0  0  0
 13 17  1  0  0  0
 13 29  1  0  0  0
 13 30  1  0  0  0
 13 31  1  0  0  0
 14 19  1  0  0  0
 14 32  1  0  0  0
 14 33  1  0  0  0
 14 34  1  0  0  0
 15 19  1  0  0  0
 15 35  1  0  0  0
 15 36  1  0  0  0
 15 37  1  0  0  0
 16 17  1  0  0  0
 16 18  1  0  0  0
 16 38  1  0  0  0
 16 39  1  0  0  0
 17 19  1  0  0  0
 17 40  1  0  0  0
 19 41  1  0  0  0
M  CHG  1  19   1
M  END
> <s_m_entry_id>
492

> <s_m_entry_name>
PMT1assS.1

> <s_m_Source_Path>
/home/emilio/Dropbox/SAMPL9-eglab/mCD/ligsdfs

> <s_m_Source_File>
PMT1assS.sdf

> <i_m_Source_File_Index>
1

> <r_epik_Ionization_Penalty>
  0.0045

> <r_epik_State_Penalty>
  0.0032

> <i_epik_Tot_Q>
1

> <s_m_job_name>
ligprep_4

> <chiral flag>
1

> <version>
0

> <i_f3d_flags>
0

> <s_m_subgroup_title>
bCDq->ssS d_copy1

> <s_m_subgroupid>
bCDq_copy1->ssS_copy2

> <b_m_subgroup_collapsed>
0

$$$$
