@<TRIPOS>MOLECULE
LIG
41 43
SMALL
USER_CHARGES
@<TRIPOS>ATOM
      1 C1         33.3041  109.5255   44.6753 AA             0 LIG     -0.150100
      2 C2         28.2473  107.8471   39.8862 AB             0 LIG     -0.150100
      3 C3         34.3633  109.0164   43.9048 AD             0 LIG     -0.150100
      4 C4         29.1349  107.2395   38.9828 AE             0 LIG     -0.150100
      5 C5         31.9751  109.1481   44.3975 AF             0 LIG     -0.220762
      6 C6         28.6453  108.0858   41.2170 AH             0 LIG     -0.220762
      7 C7         34.0879  108.1222   42.8547 AI             0 LIG     -0.190531
      8 C8         30.4264  106.8862   39.4062 AJ             0 LIG     -0.190531
      9 C9         31.6794  108.2504   43.3420 AK             0 LIG     0.084657
     10 C10        29.9376  107.7136   41.6665 AN             0 LIG     0.084657
     11 C11        32.7578  107.7496   42.5678 AO             0 LIG     0.115853
     12 C12        30.8299  107.1202   40.7353 AP             0 LIG     0.115853
     13 C13        30.7737  105.5442   45.9585 AQ             0 LIG     -0.353988
     14 C14        31.1979  105.3581   42.4955 AV             0 LIG     -0.185375
     15 C15        29.2489  103.9923   42.9860 AW             0 LIG     -0.185375
     16 C16        29.5322  107.1584   43.9906 AX             0 LIG     0.002465
     17 C17        29.9612  105.7515   44.6448 AY             1 LIG     0.085935
     18 N1         30.3465  107.9118   43.0042 AZ             0 LIG     -0.190232
     19 N2         30.3482  104.7899   43.5645 BB             0 LIG     0.109280
     20 S1         32.4697  106.6620   41.2057 BC             0 LIG     -0.188456
     21 H1         33.5144  110.2323   45.4684 BD             0 LIG     0.166423
     22 H2         27.2667  108.1529   39.5473 BF             0 LIG     0.166423
     23 H3         35.3822  109.3176   44.1093 BG             0 LIG     0.166423
     24 H4         28.8352  107.0644   37.9566 BH             0 LIG     0.166423
     25 H5         31.1971  109.6144   44.9804 BJ             0 LIG     0.128375
     26 H6         27.9417  108.5911   41.8582 BK             0 LIG     0.128375
     27 H7         34.9002  107.7432   42.2512 BL             0 LIG     0.178440
     28 H8         31.1244  106.4525   38.7052 BM             0 LIG     0.178440
     29 H9         30.4662  106.2133   46.7601 BN             0 LIG     0.122803
     30 H10        31.8593  105.6413   45.8438 BO             0 LIG     0.122803
     31 H11        30.6161  104.5419   46.3721 BP             0 LIG     0.122803
     32 H12        30.6264  106.0079   41.8330 BQ             0 LIG     0.123915
     33 H13        31.6043  104.5553   41.8723 BS             0 LIG     0.123915
     34 H14        32.0375  105.9207   42.8943 BT             0 LIG     0.123915
     35 H15        28.5142  104.6227   42.4937 BU             0 LIG     0.123915
     36 H16        28.7610  103.3696   43.7280 BV             0 LIG     0.123915
     37 H17        29.6040  103.2915   42.2299 BW             0 LIG     0.123915
     38 H18        28.5689  107.0507   43.5104 BX             0 LIG     0.090289
     39 H19        29.3128  107.8397   44.7916 BY             0 LIG     0.090289
     40 H20        28.9898  105.3847   44.9547 BZ             0 LIG     0.141962
     41 H21        30.9310  104.1145   44.0311 CB             0 LIG     0.213953
@<TRIPOS>BOND
        1  1  3  2
        2  1  5  1
        3  1  21  1
        4  2  4  2
        5  2  6  1
        6  2  22  1
        7  3  7  1
        8  3  23  1
        9  4  8  1
        10  4  24  1
        11  5  9  2
        12  5  25  1
        13  6  10  2
        14  6  26  1
        15  7  11  2
        16  7  27  1
        17  8  12  2
        18  8  28  1
        19  9  11  1
        20  9  18  1
        21  10  12  1
        22  10  18  1
        23  11  20  1
        24  12  20  1
        25  13  17  1
        26  13  29  1
        27  13  30  1
        28  13  31  1
        29  14  19  1
        30  14  32  1
        31  14  33  1
        32  14  34  1
        33  15  19  1
        34  15  35  1
        35  15  36  1
        36  15  37  1
        37  16  17  1
        38  16  18  1
        39  16  38  1
        40  16  39  1
        41  17  19  1
        42  17  40  1
        43  19  41  1
@<TRIPOS>SUBSTRUCTURE
       1 LIG             1 RESIDUE    0 **** ROOT      0

