PMZ1assS
                    3D
 Schrodinger Suite 2019-4.
 41 43  0  0  1  0            999 V2000
   33.0984  109.4848   44.8836  C    0  0  0  0  0  0
   28.2518  107.8492   39.9009  C    0  0  0  0  0  0
   34.1689  109.0933   44.1149  C    0  0  0  0  0  0
   29.1320  107.3136   39.0081  C    0  0  0  0  0  0
   31.8153  109.1075   44.4370  C    0  0  0  0  0  0
   28.6576  108.1700   41.1973  C    0  0  0  0  0  0
   34.0195  108.2531   42.9905  C    0  0  0  0  0  0
   30.4317  106.9856   39.4074  C    0  0  0  0  0  0
   31.6586  108.3131   43.3045  C    0  0  0  0  0  0
   29.9722  107.8238   41.6439  C    0  0  0  0  0  0
   32.7720  107.8130   42.6319  C    0  0  0  0  0  0
   30.8377  107.1853   40.7068  C    0  0  0  0  0  0
   28.5994  104.8950   41.4810  C    0  0  0  0  0  0
   29.5245  102.8042   42.2188  C    0  0  0  0  0  0
   30.3080  105.8067   44.3577  C    0  0  0  0  0  0
   29.6215  107.0608   43.9129  C    0  0  0  0  0  0
   30.4970  104.8493   43.2299  C    0  0  0  0  0  0
   30.3571  107.8994   42.9704  N    0  0  0  0  0  0
   29.1601  104.1999   42.6617  N    0  3  0  0  0  0
   32.4551  106.6726   41.2257  S    0  0  0  0  0  0
   33.1661  110.1949   45.6836  H    0  0  0  0  0  0
   27.2114  108.0236   39.6122  H    0  0  0  0  0  0
   35.2214  109.4236   44.2824  H    0  0  0  0  0  0
   28.8236  107.0544   37.9929  H    0  0  0  0  0  0
   30.9367  109.5472   44.8868  H    0  0  0  0  0  0
   27.9884  108.7502   41.7694  H    0  0  0  0  0  0
   34.8776  108.0056   42.3721  H    0  0  0  0  0  0
   31.1028  106.5571   38.6448  H    0  0  0  0  0  0
   27.9693  105.8135   41.7094  H    0  0  0  0  0  0
   27.9618  104.2468   40.9946  H    0  0  0  0  0  0
   29.3570  105.0975   40.7231  H    0  0  0  0  0  0
   29.7939  102.3398   43.1749  H    0  0  0  0  0  0
   30.3652  102.8254   41.5611  H    0  0  0  0  0  0
   28.7141  102.2318   41.7096  H    0  0  0  0  0  0
   31.2619  106.0288   44.9194  H    0  0  0  0  0  0
   29.7747  105.2578   45.1186  H    0  0  0  0  0  0
   28.5392  106.9977   43.6676  H    0  0  0  0  0  0
   29.6228  107.6653   44.8145  H    0  0  0  0  0  0
   31.0900  105.3458   42.4648  H    0  0  0  0  0  0
   31.1343  104.0290   43.5161  H    0  0  0  0  0  0
   28.3720  104.0843   43.3831  H    0  0  0  0  0  0
  1  3  2  0  0  0
  1  5  1  0  0  0
  1 21  1  0  0  0
  2  4  2  0  0  0
  2  6  1  0  0  0
  2 22  1  0  0  0
  3  7  1  0  0  0
  3 23  1  0  0  0
  4  8  1  0  0  0
  4 24  1  0  0  0
  5  9  2  0  0  0
  5 25  1  0  0  0
  6 10  2  0  0  0
  6 26  1  0  0  0
  7 11  2  0  0  0
  7 27  1  0  0  0
  8 12  2  0  0  0
  8 28  1  0  0  0
  9 11  1  0  0  0
  9 18  1  0  0  0
 10 12  1  0  0  0
 10 18  1  0  0  0
 11 20  1  0  0  0
 12 20  1  0  0  0
 13 19  1  0  0  0
 13 29  1  0  0  0
 13 30  1  0  0  0
 13 31  1  0  0  0
 14 19  1  0  0  0
 14 32  1  0  0  0
 14 33  1  0  0  0
 14 34  1  0  0  0
 15 16  1  0  0  0
 15 17  1  0  0  0
 15 35  1  0  0  0
 15 36  1  0  0  0
 16 18  1  0  0  0
 16 37  1  0  0  0
 16 38  1  0  0  0
 17 19  1  0  0  0
 17 39  1  0  0  0
 17 40  1  0  0  0
 19 41  1  0  0  0
M  CHG  1  19   1
M  END
> <s_m_entry_id>
193

> <s_m_Source_Path>
/home/emilio/Dropbox/SAMPL9-eglab/mCD/ligsdfs

> <s_m_Source_File>
PMZ1assS.sdf

> <i_m_Source_File_Index>
1

> <r_epik_Ionization_Penalty>
  0.0034

> <r_epik_State_Penalty>
  0.0024

> <i_epik_Tot_Q>
1

> <s_m_job_name>
ligprep_4

> <i_f3d_flags>
0

$$$$

