@<TRIPOS>MOLECULE
LIG
41 43
SMALL
USER_CHARGES
@<TRIPOS>ATOM
      1 C1         33.0984  109.4848   44.8836 PA             0 LIG     -0.151978
      2 C2         28.2518  107.8492   39.9009 PB             0 LIG     -0.151978
      3 C3         34.1689  109.0933   44.1149 PD             0 LIG     -0.151978
      4 C4         29.1320  107.3136   39.0081 PE             0 LIG     -0.151978
      5 C5         31.8153  109.1075   44.4370 PF             0 LIG     -0.221382
      6 C6         28.6576  108.1700   41.1973 PH             0 LIG     -0.221382
      7 C7         34.0195  108.2531   42.9905 PI             0 LIG     -0.192007
      8 C8         30.4317  106.9856   39.4074 PJ             0 LIG     -0.192007
      9 C9         31.6586  108.3131   43.3045 PK             0 LIG     0.086899
     10 C10        29.9722  107.8238   41.6439 PN             0 LIG     0.086899
     11 C11        32.7720  107.8130   42.6319 PO             0 LIG     0.115779
     12 C12        30.8377  107.1853   40.7068 PP             0 LIG     0.115779
     13 C13        28.5994  104.8950   41.4810 PQ             0 LIG     -0.319173
     14 C14        29.5245  102.8042   42.2188 PV             0 LIG     -0.319173
     15 C15        30.3080  105.8067   44.3577 PW             0 LIG     -0.018118
     16 C16        29.6215  107.0608   43.9129 PX             0 LIG     0.036275
     17 C17        30.4970  104.8493   43.2299 PY             0 LIG     0.012268
     18 N1         30.3571  107.8994   42.9704 PZ             0 LIG     -0.191498
     19 N2         29.1601  104.1999   42.6617 QB             0 LIG     0.153200
     20 S1         32.4551  106.6726   41.2257 QC             0 LIG     -0.201542
     21 H1         33.1661  110.1949   45.6836 QD             0 LIG     0.160898
     22 H2         27.2114  108.0236   39.6122 QF             0 LIG     0.160898
     23 H3         35.2214  109.4236   44.2824 QG             0 LIG     0.160898
     24 H4         28.8236  107.0544   37.9929 QH             0 LIG     0.160898
     25 H5         30.9367  109.5472   44.8868 QJ             0 LIG     0.134456
     26 H6         27.9884  108.7502   41.7694 QK             0 LIG     0.134456
     27 H7         34.8776  108.0056   42.3721 QL             0 LIG     0.174337
     28 H8         31.1028  106.5571   38.6448 QM             0 LIG     0.174337
     29 H9         27.9693  105.8135   41.7094 QN             0 LIG     0.158404
     30 H10        27.9618  104.2468   40.9946 QO             0 LIG     0.158404
     31 H11        29.3570  105.0975   40.7231 QP             0 LIG     0.158404
     32 H12        29.7939  102.3398   43.1749 QQ             0 LIG     0.158404
     33 H13        30.3652  102.8254   41.5611 QS             0 LIG     0.158404
     34 H14        28.7141  102.2318   41.7096 QT             0 LIG     0.158404
     35 H15        31.2619  106.0288   44.9194 QU             0 LIG     0.041463
     36 H16        29.7747  105.2578   45.1186 QV             0 LIG     0.041463
     37 H17        28.5392  106.9977   43.6676 QW             0 LIG     0.085391
     38 H18        29.6228  107.6653   44.8145 QX             0 LIG     0.085391
     39 H19        31.0900  105.3458   42.4648 QY             0 LIG     0.073022
     40 H20        31.1343  104.0290   43.5161 QZ             0 LIG     0.073022
     41 H21        28.3720  104.0843   43.3831 RB             0 LIG     0.265740
@<TRIPOS>BOND
        1  1  3  2
        2  1  5  1
        3  1  21  1
        4  2  4  2
        5  2  6  1
        6  2  22  1
        7  3  7  1
        8  3  23  1
        9  4  8  1
        10  4  24  1
        11  5  9  2
        12  5  25  1
        13  6  10  2
        14  6  26  1
        15  7  11  2
        16  7  27  1
        17  8  12  2
        18  8  28  1
        19  9  11  1
        20  9  18  1
        21  10  12  1
        22  10  18  1
        23  11  20  1
        24  12  20  1
        25  13  19  1
        26  13  29  1
        27  13  30  1
        28  13  31  1
        29  14  19  1
        30  14  32  1
        31  14  33  1
        32  14  34  1
        33  15  16  1
        34  15  17  1
        35  15  35  1
        36  15  36  1
        37  16  18  1
        38  16  37  1
        39  16  38  1
        40  17  19  1
        41  17  39  1
        42  17  40  1
        43  19  41  1
@<TRIPOS>SUBSTRUCTURE
       1 LIG             1 RESIDUE    0 **** ROOT      0

