@<TRIPOS>MOLECULE
LIG
52 55
SMALL
USER_CHARGES
@<TRIPOS>ATOM
      1 C1         33.2985  109.3926   44.7752 AA             0 LIG     -0.151741
      2 C2         34.3505  108.9704   43.9390 AB             0 LIG     -0.151741
      3 C3         31.9732  109.0191   44.4911 AD             0 LIG     -0.220252
      4 C4         34.0736  108.1366   42.8406 AE             0 LIG     -0.194616
      5 C5         30.3930  106.7783   39.4387 AF             0 LIG     -0.194616
      6 C6         29.0964  107.1276   39.0216 AH             0 LIG     -0.194616
      7 C7         28.7229  108.2026   41.1720 AI             0 LIG     -0.276550
      8 C8         31.6697  108.2097   43.3676 AJ             0 LIG     0.084603
      9 C9         29.9614  107.7358   41.6539 AK             0 LIG     0.084603
     10 C10        32.7488  107.7448   42.5652 AN             0 LIG     0.112404
     11 C11        30.8246  107.0792   40.7447 AO             0 LIG     0.112404
     12 C12        28.2579  107.8457   39.8960 AP             0 LIG     0.163041
     13 C13        32.0930  103.6834   41.8258 AQ             0 LIG     -0.029878
     14 C14        30.9681  103.4151   40.8201 AV             0 LIG     -0.034345
     15 C15        31.7582  104.8943   42.7027 AW             0 LIG     -0.054555
     16 C16        29.5907  103.3218   41.5186 AX             0 LIG     0.011138
     17 C17        30.3900  104.6915   43.4046 AY             1 LIG     0.149935
     18 C18        28.9900  105.7227   41.5670 AZ             0 LIG     -0.244054
     19 C19        26.1896  107.5186   37.8845 BB             0 LIG     -0.160589
     20 C20        30.0882  105.7322   44.5259 BC             0 LIG     -0.033239
     21 C21        29.6116  107.1314   43.9959 BD             0 LIG     0.039575
     22 N1         30.3353  107.9154   43.0018 BF             0 LIG     -0.187004
     23 N2         29.3206  104.5132   42.3804 BG             1 LIG     -0.070769
     24 S1         32.4712  106.6596   41.1988 BH             0 LIG     -0.197900
     25 S2         26.5992  108.2794   39.4797 BJ             0 LIG     -0.258446
     26 H1         33.5005  110.0229   45.6298 BK             0 LIG     0.161610
     27 H2         35.3642  109.2854   44.1456 BL             0 LIG     0.161610
     28 H3         31.1992  109.4044   45.1369 BM             0 LIG     0.136076
     29 H4         34.8807  107.8083   42.2013 BN             0 LIG     0.176324
     30 H5         31.0729  106.2766   38.7653 BO             0 LIG     0.176324
     31 H6         28.7785  106.8709   38.0230 BP             0 LIG     0.176324
     32 H7         28.1261  108.8629   41.7800 BQ             0 LIG     0.140791
     33 H8         32.2425  102.8061   42.4589 BS             0 LIG     0.046381
     34 H9         33.0404  103.8522   41.3100 BT             0 LIG     0.046381
     35 H10        30.9640  104.1965   40.0593 BU             0 LIG     0.049941
     36 H11        31.1784  102.4889   40.2839 BV             0 LIG     0.049941
     37 H12        32.5704  105.0034   43.4087 BW             0 LIG     0.046927
     38 H13        31.7625  105.8135   42.1174 BX             0 LIG     0.046927
     39 H14        28.8015  103.1852   40.7777 BY             0 LIG     0.081886
     40 H15        29.5716  102.4267   42.1454 BZ             0 LIG     0.081886
     41 H16        30.4345  103.7314   43.9146 CB             0 LIG     0.038290
     42 H17        29.7873  105.9776   40.8698 CI             0 LIG     0.142123
     43 H18        28.8071  106.5978   42.1863 CJ             0 LIG     0.142123
     44 H19        28.0893  105.5575   40.9780 CK             0 LIG     0.142123
     45 H20        25.1419  107.7125   37.6515 CM             0 LIG     0.110774
     46 H21        26.3385  106.4384   37.9182 CN             0 LIG     0.110774
     47 H22        26.7978  107.9327   37.0782 CT             0 LIG     0.110774
     48 H23        29.2078  105.3390   45.0483 CW             0 LIG     0.042019
     49 H24        30.8490  105.7670   45.2926 DA             0 LIG     0.042019
     50 H25        28.6941  107.0129   43.4084 DB             0 LIG     0.082888
     51 H26        29.3762  107.7619   44.8573 DC             0 LIG     0.082888
     52 H27        28.4684  104.2937   42.8876 DD             0 LIG     0.271082
@<TRIPOS>BOND
        1  1  2  2
        2  1  3  1
        3  1  26  1
        4  2  4  1
        5  2  27  1
        6  3  8  2
        7  3  28  1
        8  4  10  2
        9  4  29  1
        10  5  6  1
        11  5  11  2
        12  5  30  1
        13  6  12  2
        14  6  31  1
        15  7  9  2
        16  7  12  1
        17  7  32  1
        18  8  10  1
        19  8  22  1
        20  9  11  1
        21  9  22  1
        22  10  24  1
        23  11  24  1
        24  12  25  1
        25  13  14  1
        26  13  15  1
        27  13  33  1
        28  13  34  1
        29  14  16  1
        30  14  35  1
        31  14  36  1
        32  15  17  1
        33  15  37  1
        34  15  38  1
        35  16  23  1
        36  16  39  1
        37  16  40  1
        38  17  20  1
        39  17  23  1
        40  17  41  1
        41  18  23  1
        42  18  42  1
        43  18  43  1
        44  18  44  1
        45  19  25  1
        46  19  45  1
        47  19  46  1
        48  19  47  1
        49  20  21  1
        50  20  48  1
        51  20  49  1
        52  21  22  1
        53  21  50  1
        54  21  51  1
        55  23  52  1
@<TRIPOS>SUBSTRUCTURE
       1 LIG             1 RESIDUE    0 **** ROOT      0

