@<TRIPOS>MOLECULE
LIG
52 55
SMALL
USER_CHARGES
@<TRIPOS>ATOM
      1 C1         33.2984  109.3927   44.7753 AA             0 LIG     -0.151259
      2 C2         34.3506  108.9702   43.9389 AB             0 LIG     -0.151259
      3 C3         31.9731  109.0192   44.4908 AD             0 LIG     -0.219304
      4 C4         34.0737  108.1368   42.8406 AE             0 LIG     -0.194592
      5 C5         30.3931  106.7785   39.4389 AF             0 LIG     -0.194592
      6 C6         29.0965  107.1276   39.0209 AH             0 LIG     -0.194592
      7 C7         28.7231  108.2023   41.1719 AI             0 LIG     -0.277127
      8 C8         31.6699  108.2094   43.3682 AJ             0 LIG     0.085655
      9 C9         29.9614  107.7355   41.6547 AK             0 LIG     0.085655
     10 C10        32.7486  107.7448   42.5650 AN             0 LIG     0.112307
     11 C11        30.8244  107.0793   40.7446 AO             0 LIG     0.112307
     12 C12        28.2579  107.8458   39.8962 AP             0 LIG     0.162844
     13 C13        31.3126  104.0944   41.7670 AQ             0 LIG     -0.032521
     14 C14        30.2445  103.0000   41.7534 AV             0 LIG     -0.034488
     15 C15        30.8106  105.3024   42.5580 AW             0 LIG     -0.055761
     16 C16        29.7826  102.6580   43.1789 AX             0 LIG     -0.006430
     17 C17        30.4233  104.8921   43.9993 AY             1 LIG     0.133288
     18 C18        28.7191  103.4930   45.2260 AZ             0 LIG     -0.176010
     19 C19        26.1895  107.5186   37.8844 BB             0 LIG     -0.159669
     20 C20        30.1145  106.1276   44.8895 BC             0 LIG     -0.036260
     21 C21        29.5504  107.3610   44.1212 BD             0 LIG     0.036576
     22 N1         30.3348  107.9158   43.0027 BF             0 LIG     -0.187743
     23 N2         29.3264  103.8681   43.9248 BG             2 LIG     -0.192054
     24 S1         32.4715  106.6593   41.1984 BH             0 LIG     -0.197945
     25 S2         26.5992  108.2795   39.4796 BJ             0 LIG     -0.259338
     26 H1         33.5003  110.0228   45.6297 BK             0 LIG     0.162335
     27 H2         35.3642  109.2854   44.1456 BL             0 LIG     0.162335
     28 H3         31.1993  109.4042   45.1367 BM             0 LIG     0.137375
     29 H4         34.8807  107.8083   42.2013 BN             0 LIG     0.176356
     30 H5         31.0729  106.2765   38.7651 BO             0 LIG     0.176356
     31 H6         28.7785  106.8709   38.0230 BP             0 LIG     0.176356
     32 H7         28.1263  108.8627   41.7800 BQ             0 LIG     0.141006
     33 H8         32.2304  103.7175   42.2211 BS             0 LIG     0.046484
     34 H9         31.5762  104.3906   40.7518 BT             0 LIG     0.046484
     35 H10        29.3979  103.3213   41.1462 BU             0 LIG     0.051372
     36 H11        30.6436  102.1100   41.2645 BV             0 LIG     0.051372
     37 H12        31.6017  106.0467   42.5387 BW             0 LIG     0.048966
     38 H13        29.9646  105.7663   42.0489 BX             0 LIG     0.048966
     39 H14        28.9817  101.9213   43.1190 BY             0 LIG     0.095743
     40 H15        30.5951  102.1797   43.7265 BZ             0 LIG     0.095743
     41 H16        31.2755  104.3798   44.4347 CB             0 LIG     0.086415
     42 H17        29.4818  103.2321   45.9625 CI             0 LIG     0.129026
     43 H18        28.0554  102.6322   45.1144 CJ             0 LIG     0.129026
     44 H19        28.1052  104.3020   45.6256 CK             0 LIG     0.129026
     45 H20        25.1419  107.7125   37.6515 CM             0 LIG     0.110256
     46 H21        26.3385  106.4384   37.9182 CN             0 LIG     0.110256
     47 H22        26.7978  107.9327   37.0782 CT             0 LIG     0.110256
     48 H23        29.3610  105.8321   45.6183 CW             0 LIG     0.037623
     49 H24        30.9604  106.4492   45.4893 DA             0 LIG     0.037623
     50 H25        28.5366  107.2163   43.7656 DB             0 LIG     0.084613
     51 H26        29.4580  108.1454   44.8709 DC             0 LIG     0.084613
     52 H27        28.5835  104.2738   43.3700 DD             0 LIG     0.326325
@<TRIPOS>BOND
        1  1  2  2
        2  1  3  1
        3  1  26  1
        4  2  4  1
        5  2  27  1
        6  3  8  2
        7  3  28  1
        8  4  10  2
        9  4  29  1
        10  5  6  1
        11  5  11  2
        12  5  30  1
        13  6  12  2
        14  6  31  1
        15  7  9  2
        16  7  12  1
        17  7  32  1
        18  8  10  1
        19  8  22  1
        20  9  11  1
        21  9  22  1
        22  10  24  1
        23  11  24  1
        24  12  25  1
        25  13  14  1
        26  13  15  1
        27  13  33  1
        28  13  34  1
        29  14  16  1
        30  14  35  1
        31  14  36  1
        32  15  17  1
        33  15  37  1
        34  15  38  1
        35  16  23  1
        36  16  39  1
        37  16  40  1
        38  17  20  1
        39  17  23  1
        40  17  41  1
        41  18  23  1
        42  18  42  1
        43  18  43  1
        44  18  44  1
        45  19  25  1
        46  19  45  1
        47  19  46  1
        48  19  47  1
        49  20  21  1
        50  20  48  1
        51  20  49  1
        52  21  22  1
        53  21  50  1
        54  21  51  1
        55  23  52  1
@<TRIPOS>SUBSTRUCTURE
       1 LIG             1 RESIDUE    0 **** ROOT      0

