TDZNS1assS
                    3D
 Structure written by MMmdl.
 52 55  0  0  1  0            999 V2000
   33.2985  109.3926   44.7752 C   0  0  0  0  0  0
   34.3505  108.9704   43.9390 C   0  0  0  0  0  0
   31.9732  109.0191   44.4911 C   0  0  0  0  0  0
   34.0736  108.1366   42.8406 C   0  0  0  0  0  0
   30.3930  106.7783   39.4387 C   0  0  0  0  0  0
   29.0964  107.1276   39.0216 C   0  0  0  0  0  0
   28.7229  108.2026   41.1720 C   0  0  0  0  0  0
   31.6697  108.2097   43.3676 C   0  0  0  0  0  0
   29.9614  107.7358   41.6539 C   0  0  0  0  0  0
   32.7488  107.7448   42.5652 C   0  0  0  0  0  0
   30.8246  107.0792   40.7447 C   0  0  0  0  0  0
   28.2579  107.8457   39.8960 C   0  0  0  0  0  0
   32.0930  103.6834   41.8258 C   0  0  0  0  0  0
   30.9681  103.4151   40.8201 C   0  0  0  0  0  0
   31.7582  104.8943   42.7027 C   0  0  0  0  0  0
   29.5907  103.3218   41.5186 C   0  0  0  0  0  0
   30.3900  104.6915   43.4046 C   0  0  1  0  0  0
   28.9900  105.7227   41.5670 C   0  0  0  0  0  0
   26.1896  107.5186   37.8845 C   0  0  0  0  0  0
   30.0882  105.7322   44.5259 C   0  0  0  0  0  0
   29.6116  107.1314   43.9959 C   0  0  0  0  0  0
   30.3353  107.9154   43.0018 N   0  0  0  0  0  0
   29.3206  104.5132   42.3804 N   0  3  1  0  0  0
   32.4712  106.6596   41.1988 S   0  0  0  0  0  0
   26.5992  108.2794   39.4797 S   0  0  0  0  0  0
   33.5005  110.0229   45.6298 H   0  0  0  0  0  0
   35.3642  109.2854   44.1456 H   0  0  0  0  0  0
   31.1992  109.4044   45.1369 H   0  0  0  0  0  0
   34.8807  107.8083   42.2013 H   0  0  0  0  0  0
   31.0729  106.2766   38.7653 H   0  0  0  0  0  0
   28.7785  106.8709   38.0230 H   0  0  0  0  0  0
   28.1261  108.8629   41.7800 H   0  0  0  0  0  0
   32.2425  102.8061   42.4589 H   0  0  0  0  0  0
   33.0404  103.8522   41.3100 H   0  0  0  0  0  0
   30.9640  104.1965   40.0593 H   0  0  0  0  0  0
   31.1784  102.4889   40.2839 H   0  0  0  0  0  0
   32.5704  105.0034   43.4087 H   0  0  0  0  0  0
   31.7625  105.8135   42.1174 H   0  0  0  0  0  0
   28.8015  103.1852   40.7777 H   0  0  0  0  0  0
   29.5716  102.4267   42.1454 H   0  0  0  0  0  0
   30.4345  103.7314   43.9146 H   0  0  0  0  0  0
   29.7873  105.9776   40.8698 H   0  0  0  0  0  0
   28.8071  106.5978   42.1863 H   0  0  0  0  0  0
   28.0893  105.5575   40.9780 H   0  0  0  0  0  0
   25.1419  107.7125   37.6515 H   0  0  0  0  0  0
   26.3385  106.4384   37.9182 H   0  0  0  0  0  0
   26.7978  107.9327   37.0782 H   0  0  0  0  0  0
   29.2078  105.3390   45.0483 H   0  0  0  0  0  0
   30.8490  105.7670   45.2926 H   0  0  0  0  0  0
   28.6941  107.0129   43.4084 H   0  0  0  0  0  0
   29.3762  107.7619   44.8573 H   0  0  0  0  0  0
   28.4684  104.2937   42.8876 H   0  0  0  0  0  0
  1  2  2  0  0  0
  1  3  1  0  0  0
  1 26  1  0  0  0
  2  4  1  0  0  0
  2 27  1  0  0  0
  3  8  2  0  0  0
  3 28  1  0  0  0
  4 10  2  0  0  0
  4 29  1  0  0  0
  5  6  2  0  0  0
  5 11  1  0  0  0
  5 30  1  0  0  0
  6 12  1  0  0  0
  6 31  1  0  0  0
  7  9  1  0  0  0
  7 12  2  0  0  0
  7 32  1  0  0  0
  8 10  1  0  0  0
  8 22  1  0  0  0
  9 11  2  0  0  0
  9 22  1  0  0  0
 10 24  1  0  0  0
 11 24  1  0  0  0
 12 25  1  0  0  0
 13 14  1  0  0  0
 13 15  1  0  0  0
 13 33  1  0  0  0
 13 34  1  0  0  0
 14 16  1  0  0  0
 14 35  1  0  0  0
 14 36  1  0  0  0
 15 17  1  0  0  0
 15 37  1  0  0  0
 15 38  1  0  0  0
 16 23  1  0  0  0
 16 39  1  0  0  0
 16 40  1  0  0  0
 17 20  1  0  0  0
 17 23  1  0  0  0
 17 41  1  0  0  0
 18 23  1  0  0  0
 18 42  1  0  0  0
 18 43  1  0  0  0
 18 44  1  0  0  0
 19 25  1  0  0  0
 19 45  1  0  0  0
 19 46  1  0  0  0
 19 47  1  0  0  0
 20 21  1  0  0  0
 20 48  1  0  0  0
 20 49  1  0  0  0
 21 22  1  0  0  0
 21 50  1  0  0  0
 21 51  1  0  0  0
 23 52  1  0  0  0
M  CHG  1  23   1
M  END
> <s_m_entry_id>
498

> <s_m_entry_name>
TDZNR1assR.1

> <s_m_Source_Path>
/home/emilio/Dropbox/SAMPL9-eglab/mCD/ligsdfs

> <s_m_Source_File>
TDZNR1assR.sdf

> <i_m_Source_File_Index>
1

> <i_lp_mmshare_version>
47013

> <s_epik_input>
W2NIXTFbY0hdW2NIXVtjSF1jKGMxMilTYzNjKFtjSF1jKFtjSF1bY0hdMylTW0NIM10pTjJbQ0gyXVtDSDJdW0NAQEhdNFtDSDJdW0NIMl1bQ0gyXVtDSDJdTjRbQ0gzXQ==

> <s_epik_cmdline>
J2VwaWtfcHl0aG9uJywgJy1waHQnLCAnNC4wJywgJy1waCcsICc3LjQnLCAnLXRuJywgJzgnLCAnLW1hJywgJzIwMCcsICctaW1hZScsICc8aW5maWxlLm1hZT4nLCAnLW9tYWUnLCAnPG91dGZpbGUubWFlPic=

> <r_epik_Ionization_Penalty>
  0.0017

> <r_epik_Ionization_Penalty_Charging>
  0.0017

> <r_epik_Ionization_Penalty_Neutral>
  0.0000

> <r_epik_State_Penalty>
  0.0011

> <r_epik_Charging_Adjusted_Penalty>
0.00279136850725907

> <i_epik_Tot_Q>
1

> <i_epik_Tot_abs_Q>
1

> <s_lp_Force_Field>
OPLS3e

> <r_lp_Energy>
55.960333

> <b_lp_Chiralities_Consistent>
1

> <s_lp_Variant>
TDZ-NR-1

> <s_m_job_name>
ligprep_4

> <chiral flag>
1

> <version>
0

> <i_f3d_flags>
0

> <s_m_subgroup_title>
bCDq->ssS d_copy1

> <s_m_subgroupid>
bCDq_copy1->ssS_copy2

> <b_m_subgroup_collapsed>
0

$$$$
