TDZNR1assS
                    3D
 Structure written by MMmdl.
 52 55  0  0  1  0            999 V2000
   33.2984  109.3927   44.7753 C   0  0  0  0  0  0
   34.3506  108.9702   43.9389 C   0  0  0  0  0  0
   31.9731  109.0192   44.4908 C   0  0  0  0  0  0
   34.0737  108.1368   42.8406 C   0  0  0  0  0  0
   30.3931  106.7785   39.4389 C   0  0  0  0  0  0
   29.0965  107.1276   39.0209 C   0  0  0  0  0  0
   28.7231  108.2023   41.1719 C   0  0  0  0  0  0
   31.6699  108.2094   43.3682 C   0  0  0  0  0  0
   29.9614  107.7355   41.6547 C   0  0  0  0  0  0
   32.7486  107.7448   42.5650 C   0  0  0  0  0  0
   30.8244  107.0793   40.7446 C   0  0  0  0  0  0
   28.2579  107.8458   39.8962 C   0  0  0  0  0  0
   31.3126  104.0944   41.7670 C   0  0  0  0  0  0
   30.2445  103.0000   41.7534 C   0  0  0  0  0  0
   30.8106  105.3024   42.5580 C   0  0  0  0  0  0
   29.7826  102.6580   43.1789 C   0  0  0  0  0  0
   30.4233  104.8921   43.9993 C   0  0  1  0  0  0
   28.7191  103.4930   45.2260 C   0  0  0  0  0  0
   26.1895  107.5186   37.8844 C   0  0  0  0  0  0
   30.1145  106.1276   44.8895 C   0  0  0  0  0  0
   29.5504  107.3610   44.1212 C   0  0  0  0  0  0
   30.3348  107.9158   43.0027 N   0  0  0  0  0  0
   29.3264  103.8681   43.9248 N   0  3  2  0  0  0
   32.4715  106.6593   41.1984 S   0  0  0  0  0  0
   26.5992  108.2795   39.4796 S   0  0  0  0  0  0
   33.5003  110.0228   45.6297 H   0  0  0  0  0  0
   35.3642  109.2854   44.1456 H   0  0  0  0  0  0
   31.1993  109.4042   45.1367 H   0  0  0  0  0  0
   34.8807  107.8083   42.2013 H   0  0  0  0  0  0
   31.0729  106.2765   38.7651 H   0  0  0  0  0  0
   28.7785  106.8709   38.0230 H   0  0  0  0  0  0
   28.1263  108.8627   41.7800 H   0  0  0  0  0  0
   32.2304  103.7175   42.2211 H   0  0  0  0  0  0
   31.5762  104.3906   40.7518 H   0  0  0  0  0  0
   29.3979  103.3213   41.1462 H   0  0  0  0  0  0
   30.6436  102.1100   41.2645 H   0  0  0  0  0  0
   31.6017  106.0467   42.5387 H   0  0  0  0  0  0
   29.9646  105.7663   42.0489 H   0  0  0  0  0  0
   28.9817  101.9213   43.1190 H   0  0  0  0  0  0
   30.5951  102.1797   43.7265 H   0  0  0  0  0  0
   31.2755  104.3798   44.4347 H   0  0  0  0  0  0
   29.4818  103.2321   45.9625 H   0  0  0  0  0  0
   28.0554  102.6322   45.1144 H   0  0  0  0  0  0
   28.1052  104.3020   45.6256 H   0  0  0  0  0  0
   25.1419  107.7125   37.6515 H   0  0  0  0  0  0
   26.3385  106.4384   37.9182 H   0  0  0  0  0  0
   26.7978  107.9327   37.0782 H   0  0  0  0  0  0
   29.3610  105.8321   45.6183 H   0  0  0  0  0  0
   30.9604  106.4492   45.4893 H   0  0  0  0  0  0
   28.5366  107.2163   43.7656 H   0  0  0  0  0  0
   29.4580  108.1454   44.8709 H   0  0  0  0  0  0
   28.5835  104.2738   43.3700 H   0  0  0  0  0  0
  1  2  2  0  0  0
  1  3  1  0  0  0
  1 26  1  0  0  0
  2  4  1  0  0  0
  2 27  1  0  0  0
  3  8  2  0  0  0
  3 28  1  0  0  0
  4 10  2  0  0  0
  4 29  1  0  0  0
  5  6  2  0  0  0
  5 11  1  0  0  0
  5 30  1  0  0  0
  6 12  1  0  0  0
  6 31  1  0  0  0
  7  9  1  0  0  0
  7 12  2  0  0  0
  7 32  1  0  0  0
  8 10  1  0  0  0
  8 22  1  0  0  0
  9 11  2  0  0  0
  9 22  1  0  0  0
 10 24  1  0  0  0
 11 24  1  0  0  0
 12 25  1  0  0  0
 13 14  1  0  0  0
 13 15  1  0  0  0
 13 33  1  0  0  0
 13 34  1  0  0  0
 14 16  1  0  0  0
 14 35  1  0  0  0
 14 36  1  0  0  0
 15 17  1  0  0  0
 15 37  1  0  0  0
 15 38  1  0  0  0
 16 23  1  0  0  0
 16 39  1  0  0  0
 16 40  1  0  0  0
 17 20  1  0  0  0
 17 23  1  0  0  0
 17 41  1  0  0  0
 18 23  1  0  0  0
 18 42  1  0  0  0
 18 43  1  0  0  0
 18 44  1  0  0  0
 19 25  1  0  0  0
 19 45  1  0  0  0
 19 46  1  0  0  0
 19 47  1  0  0  0
 20 21  1  0  0  0
 20 48  1  0  0  0
 20 49  1  0  0  0
 21 22  1  0  0  0
 21 50  1  0  0  0
 21 51  1  0  0  0
 23 52  1  0  0  0
M  CHG  1  23   1
M  END
> <s_m_entry_id>
496

> <s_m_entry_name>
TDZNR1assR.1

> <s_m_Source_Path>
/home/emilio/Dropbox/SAMPL9-eglab/mCD/ligsdfs

> <s_m_Source_File>
TDZNR1assR.sdf

> <i_m_Source_File_Index>
1

> <i_lp_mmshare_version>
47013

> <s_epik_input>
W2NIXTFbY0hdW2NIXVtjSF1jKGMxMilTYzNjKFtjSF1jKFtjSF1bY0hdMylTW0NIM10pTjJbQ0gyXVtDSDJdW0NAQEhdNFtDSDJdW0NIMl1bQ0gyXVtDSDJdTjRbQ0gzXQ==

> <s_epik_cmdline>
J2VwaWtfcHl0aG9uJywgJy1waHQnLCAnNC4wJywgJy1waCcsICc3LjQnLCAnLXRuJywgJzgnLCAnLW1hJywgJzIwMCcsICctaW1hZScsICc8aW5maWxlLm1hZT4nLCAnLW9tYWUnLCAnPG91dGZpbGUubWFlPic=

> <r_epik_Ionization_Penalty>
  0.0017

> <r_epik_Ionization_Penalty_Charging>
  0.0017

> <r_epik_Ionization_Penalty_Neutral>
  0.0000

> <r_epik_State_Penalty>
  0.0011

> <r_epik_Charging_Adjusted_Penalty>
0.00279136850725907

> <i_epik_Tot_Q>
1

> <i_epik_Tot_abs_Q>
1

> <s_lp_Force_Field>
OPLS3e

> <r_lp_Energy>
55.960333

> <b_lp_Chiralities_Consistent>
1

> <s_lp_Variant>
TDZ-NR-1

> <s_m_job_name>
ligprep_4

> <chiral flag>
1

> <version>
0

> <i_f3d_flags>
0

> <s_m_subgroup_title>
bCDq->ssS d_copy1

> <s_m_subgroupid>
bCDq_copy1->ssS_copy2

> <b_m_subgroup_collapsed>
0

$$$$
