@<TRIPOS>MOLECULE
LIG
50 53
SMALL
USER_CHARGES
@<TRIPOS>ATOM
      1 C1         33.2799  109.2671   44.8714 AA             0 LIG     -0.146946
      2 C2         34.3461  108.7666   44.1031 AB             0 LIG     -0.146946
      3 C3         31.9502  108.9772   44.5085 AD             0 LIG     -0.213882
      4 C4         34.0794  107.9687   42.9755 AE             0 LIG     -0.189563
      5 C5         30.4231  106.8477   39.4092 AF             0 LIG     -0.189563
      6 C6         29.1241  107.1976   38.9949 AH             0 LIG     -0.186283
      7 C7         28.6999  108.1443   41.1940 AI             0 LIG     -0.267664
      8 C8         31.6661  108.1834   43.3729 AJ             0 LIG     0.094519
      9 C9         29.9611  107.7201   41.6598 AK             0 LIG     0.094519
     10 C10        32.7519  107.6747   42.6096 AN             0 LIG     0.116195
     11 C11        30.8414  107.1032   40.7328 AO             0 LIG     0.116195
     12 C12        28.2547  107.8458   39.8930 AP             0 LIG     -0.069395
     13 C13        29.5857  102.9807   41.6706 AQ             0 LIG     -0.041121
     14 C14        28.4359  105.0726   41.9276 AV             0 LIG     -0.041121
     15 C15        28.2739  102.2511   41.3929 AW             0 LIG     0.063286
     16 C16        27.1251  104.3360   41.5066 AX             0 LIG     0.063286
     17 C17        30.2851  105.6993   44.3531 AY             0 LIG     -0.016690
     18 C18        29.6357  107.0842   44.0118 AZ             0 LIG     0.028631
     19 C19        30.5577  104.7601   43.1292 BB             0 LIG     -0.059139
     20 N1         30.3278  107.9209   43.0120 BC             0 LIG     -0.187888
     21 N2         29.3367  104.1081   42.6064 BD             0 LIG     -0.035261
     22 N3         27.3885  103.1525   40.6752 BF             0 LIG     -0.795699
     23 F1         26.5481  109.4427   39.8289 BG             0 LIG     -0.251326
     24 F2         26.0201  107.3886   40.2579 BH             0 LIG     -0.251326
     25 F3         26.5594  107.9650   38.2378 BJ             0 LIG     -0.251326
     26 S1         32.4818  106.6538   41.1918 BK             0 LIG     -0.162784
     27 C20        26.8173  108.1733   39.5279 BL             0 LIG     0.697269
     28 H1         33.4859  109.8895   45.7307 BM             0 LIG     0.171877
     29 H2         35.3673  108.9998   44.3728 BN             0 LIG     0.171877
     30 H3         31.1440  109.3891   45.0957 BO             0 LIG     0.150837
     31 H4         34.9006  107.5970   42.3786 BP             0 LIG     0.186066
     32 H5         31.1021  106.3766   38.7121 BQ             0 LIG     0.186066
     33 H6         28.8004  106.9753   37.9872 BS             0 LIG     0.189607
     34 H7         28.0328  108.6832   41.8447 BT             0 LIG     0.149674
     35 H8         30.1869  102.2016   42.0633 BU             0 LIG     0.093433
     36 H9         30.1210  103.3170   40.7800 BV             0 LIG     0.093433
     37 H10        28.9764  105.4521   41.0492 BW             0 LIG     0.093433
     38 H11        28.1866  105.9478   42.5550 BX             0 LIG     0.093433
     39 H12        28.4774  101.3622   40.8058 BY             0 LIG     0.105981
     40 H13        27.7982  101.8827   42.3049 BZ             0 LIG     0.105981
     41 H14        26.5851  104.0376   42.4102 CB             0 LIG     0.105981
     42 H15        26.4939  105.0351   40.9367 CI             0 LIG     0.105981
     43 H16        31.1578  105.8110   45.0076 CJ             0 LIG     0.044237
     44 H17        29.5660  105.2196   45.0213 CK             0 LIG     0.044237
     45 H18        28.5831  106.9814   43.7271 CM             0 LIG     0.093748
     46 H19        29.6140  107.6326   44.9509 CN             0 LIG     0.093748
     47 H20        31.1172  105.2863   42.3621 CT             0 LIG     0.094892
     48 H21        31.1910  103.9321   43.3823 CW             0 LIG     0.094892
     49 H22        27.8043  103.3842   39.7867 DA             0 LIG     0.419755
     50 H23        28.8222  103.7612   43.3999 DB             0 LIG     0.340852
@<TRIPOS>BOND
        1  1  2  2
        2  1  3  1
        3  1  28  1
        4  2  4  1
        5  2  29  1
        6  3  8  2
        7  3  30  1
        8  4  10  2
        9  4  31  1
        10  5  6  1
        11  5  11  2
        12  5  32  1
        13  6  12  2
        14  6  33  1
        15  7  9  2
        16  7  12  1
        17  7  34  1
        18  8  10  1
        19  8  20  1
        20  9  11  1
        21  9  20  1
        22  10  26  1
        23  11  26  1
        24  12  27  1
        25  13  15  1
        26  13  21  1
        27  13  35  1
        28  13  36  1
        29  14  16  1
        30  14  21  1
        31  14  37  1
        32  14  38  1
        33  15  22  1
        34  15  39  1
        35  15  40  1
        36  16  22  1
        37  16  41  1
        38  16  42  1
        39  17  18  1
        40  17  19  1
        41  17  43  1
        42  17  44  1
        43  18  20  1
        44  18  45  1
        45  18  46  1
        46  19  21  1
        47  19  47  1
        48  19  48  1
        49  21  50  1
        50  22  49  1
        51  23  27  1
        52  24  27  1
        53  25  27  1
@<TRIPOS>SUBSTRUCTURE
       1 LIG             1 RESIDUE    0 **** ROOT      0

