@<TRIPOS>MOLECULE
LIG
50 53
SMALL
USER_CHARGES
@<TRIPOS>ATOM
      1 C1         33.3394  109.2989   44.8269 AA             0 LIG     -0.148793
      2 C2         34.3887  108.7742   44.0549 AB             0 LIG     -0.148793
      3 C3         32.0019  109.0066   44.4938 AD             0 LIG     -0.214109
      4 C4         34.0964  107.9565   42.9493 AE             0 LIG     -0.192215
      5 C5         30.4509  106.9266   39.3938 AF             0 LIG     -0.192215
      6 C6         29.1621  107.2888   38.9632 AH             0 LIG     -0.190417
      7 C7         28.6423  108.0388   41.2250 AI             0 LIG     -0.264320
      8 C8         31.6836  108.1781   43.3870 AJ             0 LIG     0.095370
      9 C9         29.9400  107.6935   41.6774 AK             0 LIG     0.095370
     10 C10        32.7574  107.6673   42.6130 AN             0 LIG     0.116137
     11 C11        30.8390  107.1334   40.7351 AO             0 LIG     0.116137
     12 C12        28.2509  107.8448   39.8832 AP             0 LIG     -0.071581
     13 C13        29.7019  103.0053   42.1165 AQ             0 LIG     0.037365
     14 C14        28.9987  105.1820   41.7501 AV             0 LIG     0.037365
     15 C15        28.4175  102.3771   41.5923 AW             0 LIG     0.086222
     16 C16        27.7283  104.6726   41.0461 AX             0 LIG     0.086222
     17 C17        30.1890  105.8185   44.6365 AY             0 LIG     0.011333
     18 C18        29.6223  107.1509   44.0416 AZ             0 LIG     0.026484
     19 C19        30.4992  104.7393   43.5526 BB             0 LIG     0.037611
     20 N1         30.3415  107.9177   43.0182 BC             0 LIG     -0.178062
     21 N2         29.3601  104.2458   42.8099 BD             0 LIG     -0.528710
     22 N3         27.9263  103.2991   40.5400 BF             0 LIG     -0.527743
     23 F1         25.9576  107.6874   40.2729 BG             0 LIG     -0.255693
     24 F2         26.5739  107.8930   38.2083 BH             0 LIG     -0.255693
     25 F3         26.7306  109.5794   39.5603 BJ             0 LIG     -0.255693
     26 S1         32.4717  106.6586   41.1955 BK             0 LIG     -0.174420
     27 C20        26.8478  108.2572   39.4604 BL             0 LIG     0.695255
     28 H1         33.5577  109.9459   45.6661 BM             0 LIG     0.167075
     29 H2         35.4154  109.0118   44.3003 BN             0 LIG     0.167075
     30 H3         31.2311  109.4668   45.0863 BO             0 LIG     0.157041
     31 H4         34.9013  107.5710   42.3428 BP             0 LIG     0.180382
     32 H5         31.1534  106.5033   38.6900 BQ             0 LIG     0.180382
     33 H6         28.8758  107.1475   37.9296 BS             0 LIG     0.183084
     34 H7         27.9142  108.4893   41.8795 BT             0 LIG     0.171935
     35 H8         30.2741  102.3306   42.7263 BU             0 LIG     0.086347
     36 H9         30.4064  103.1694   41.2973 BV             0 LIG     0.086347
     37 H10        29.8370  105.3148   41.0448 BW             0 LIG     0.086347
     38 H11        28.8128  106.1753   42.1692 BX             0 LIG     0.086347
     39 H12        28.5792  101.3648   41.1883 BY             0 LIG     0.119217
     40 H13        27.6508  102.2681   42.3834 BZ             0 LIG     0.119217
     41 H14        26.8923  104.6884   41.7355 CB             0 LIG     0.119217
     42 H15        27.4567  105.3308   40.2244 CI             0 LIG     0.119217
     43 H16        31.0271  106.0163   45.2999 CJ             0 LIG     0.035265
     44 H17        29.3994  105.4196   45.2953 CK             0 LIG     0.035265
     45 H18        28.7470  106.8382   43.5104 CM             0 LIG     0.085093
     46 H19        29.2180  107.7745   44.8264 CN             0 LIG     0.085093
     47 H20        31.3322  105.0042   42.9325 CT             0 LIG     0.068063
     48 H21        30.7920  103.8825   44.0432 CW             0 LIG     0.068063
     49 H22        28.6507  103.3100   39.8408 DA             0 LIG     0.375757
     50 H23        27.0814  102.9310   40.1274 DB             0 LIG     0.375757
@<TRIPOS>BOND
        1  1  2  2
        2  1  3  1
        3  1  28  1
        4  2  4  1
        5  2  29  1
        6  3  8  2
        7  3  30  1
        8  4  10  2
        9  4  31  1
        10  5  6  1
        11  5  11  2
        12  5  32  1
        13  6  12  2
        14  6  33  1
        15  7  9  2
        16  7  12  1
        17  7  34  1
        18  8  10  1
        19  8  20  1
        20  9  11  1
        21  9  20  1
        22  10  26  1
        23  11  26  1
        24  12  27  1
        25  13  15  1
        26  13  21  1
        27  13  35  1
        28  13  36  1
        29  14  16  1
        30  14  21  1
        31  14  37  1
        32  14  38  1
        33  15  22  1
        34  15  39  1
        35  15  40  1
        36  16  22  1
        37  16  41  1
        38  16  42  1
        39  17  18  1
        40  17  19  1
        41  17  43  1
        42  17  44  1
        43  18  20  1
        44  18  45  1
        45  18  46  1
        46  19  21  1
        47  19  47  1
        48  19  48  1
        49  22  49  1
        50  22  50  1
        51  23  27  1
        52  24  27  1
        53  25  27  1
@<TRIPOS>SUBSTRUCTURE
       1 LIG             1 RESIDUE    0 **** ROOT      0

