TFP1assS
                    3D
 Structure written by MMmdl.
 50 53  0  0  1  0            999 V2000
   33.3394  109.2989   44.8269 C   0  0  0  0  0  0
   34.3887  108.7742   44.0549 C   0  0  0  0  0  0
   32.0019  109.0066   44.4938 C   0  0  0  0  0  0
   34.0964  107.9565   42.9493 C   0  0  0  0  0  0
   30.4509  106.9266   39.3938 C   0  0  0  0  0  0
   29.1621  107.2888   38.9632 C   0  0  0  0  0  0
   28.6423  108.0388   41.2250 C   0  0  0  0  0  0
   31.6836  108.1781   43.3870 C   0  0  0  0  0  0
   29.9400  107.6935   41.6774 C   0  0  0  0  0  0
   32.7574  107.6673   42.6130 C   0  0  0  0  0  0
   30.8390  107.1334   40.7351 C   0  0  0  0  0  0
   28.2509  107.8448   39.8832 C   0  0  0  0  0  0
   29.7019  103.0053   42.1165 C   0  0  0  0  0  0
   28.9987  105.1820   41.7501 C   0  0  0  0  0  0
   28.4175  102.3771   41.5923 C   0  0  0  0  0  0
   27.7283  104.6726   41.0461 C   0  0  0  0  0  0
   30.1890  105.8185   44.6365 C   0  0  0  0  0  0
   29.6223  107.1509   44.0416 C   0  0  0  0  0  0
   30.4992  104.7393   43.5526 C   0  0  0  0  0  0
   30.3415  107.9177   43.0182 N   0  0  0  0  0  0
   29.3601  104.2458   42.8099 N   0  0  0  0  0  0
   27.9263  103.2991   40.5400 N   0  3  0  0  0  0
   25.9576  107.6874   40.2729 F   0  0  0  0  0  0
   26.5739  107.8930   38.2083 F   0  0  0  0  0  0
   26.7306  109.5794   39.5603 F   0  0  0  0  0  0
   32.4717  106.6586   41.1955 S   0  0  0  0  0  0
   26.8478  108.2572   39.4604 C   0  0  0  0  0  0
   33.5577  109.9459   45.6661 H   0  0  0  0  0  0
   35.4154  109.0118   44.3003 H   0  0  0  0  0  0
   31.2311  109.4668   45.0863 H   0  0  0  0  0  0
   34.9013  107.5710   42.3428 H   0  0  0  0  0  0
   31.1534  106.5033   38.6900 H   0  0  0  0  0  0
   28.8758  107.1475   37.9296 H   0  0  0  0  0  0
   27.9142  108.4893   41.8795 H   0  0  0  0  0  0
   30.2741  102.3306   42.7263 H   0  0  0  0  0  0
   30.4064  103.1694   41.2973 H   0  0  0  0  0  0
   29.8370  105.3148   41.0448 H   0  0  0  0  0  0
   28.8128  106.1753   42.1692 H   0  0  0  0  0  0
   28.5792  101.3648   41.1883 H   0  0  0  0  0  0
   27.6508  102.2681   42.3834 H   0  0  0  0  0  0
   26.8923  104.6884   41.7355 H   0  0  0  0  0  0
   27.4567  105.3308   40.2244 H   0  0  0  0  0  0
   31.0271  106.0163   45.2999 H   0  0  0  0  0  0
   29.3994  105.4196   45.2953 H   0  0  0  0  0  0
   28.7470  106.8382   43.5104 H   0  0  0  0  0  0
   29.2180  107.7745   44.8264 H   0  0  0  0  0  0
   31.3322  105.0042   42.9325 H   0  0  0  0  0  0
   30.7920  103.8825   44.0432 H   0  0  0  0  0  0
   28.6507  103.3100   39.8408 H   0  0  0  0  0  0
   27.0814  102.9310   40.1274 H   0  0  0  0  0  0
  1  2  2  0  0  0
  1  3  1  0  0  0
  1 28  1  0  0  0
  2  4  1  0  0  0
  2 29  1  0  0  0
  3  8  2  0  0  0
  3 30  1  0  0  0
  4 10  2  0  0  0
  4 31  1  0  0  0
  5  6  2  0  0  0
  5 11  1  0  0  0
  5 32  1  0  0  0
  6 12  1  0  0  0
  6 33  1  0  0  0
  7  9  1  0  0  0
  7 12  2  0  0  0
  7 34  1  0  0  0
  8 10  1  0  0  0
  8 20  1  0  0  0
  9 11  2  0  0  0
  9 20  1  0  0  0
 10 26  1  0  0  0
 11 26  1  0  0  0
 12 27  1  0  0  0
 13 15  1  0  0  0
 13 21  1  0  0  0
 13 35  1  0  0  0
 13 36  1  0  0  0
 14 16  1  0  0  0
 14 21  1  0  0  0
 14 37  1  0  0  0
 14 38  1  0  0  0
 15 22  1  0  0  0
 15 39  1  0  0  0
 15 40  1  0  0  0
 16 22  1  0  0  0
 16 41  1  0  0  0
 16 42  1  0  0  0
 17 18  1  0  0  0
 17 19  1  0  0  0
 17 43  1  0  0  0
 17 44  1  0  0  0
 18 20  1  0  0  0
 18 45  1  0  0  0
 18 46  1  0  0  0
 19 21  1  0  0  0
 19 47  1  0  0  0
 19 48  1  0  0  0
 22 49  1  0  0  0
 22 50  1  0  0  0
 23 27  1  0  0  0
 24 27  1  0  0  0
 25 27  1  0  0  0
M  CHG  1  22   1
M  END
> <s_m_entry_id>
500

> <s_m_entry_name>
TFP1assS.1

> <s_m_Source_Path>
/home/emilio/Dropbox/SAMPL9-eglab/mCD/ligsdfs

> <s_m_Source_File>
TFP1assS.sdf

> <i_m_Source_File_Index>
1

> <r_epik_Ionization_Penalty>
  0.0078

> <r_epik_State_Penalty>
  0.0420

> <i_epik_Tot_Q>
1

> <s_m_job_name>
ligprep_4

> <chiral flag>
1

> <version>
0

> <i_f3d_flags>
0

> <s_m_subgroup_title>
bCDq->ssS d_copy1

> <s_m_subgroupid>
bCDq_copy1->ssS_copy2

> <b_m_subgroup_collapsed>
0

$$$$
