@<TRIPOS>MOLECULE
LIG
41 43
SMALL
USER_CHARGES
@<TRIPOS>ATOM
      1 C1         27.1748  115.6045   37.2418 AA             0 LIG     -0.148984
      2 C2         25.9689  116.3062   37.4251 AB             0 LIG     -0.148984
      3 C3         27.7520  114.9020   38.3194 AD             0 LIG     -0.216162
      4 C4         25.3265  116.2898   38.6757 AE             0 LIG     -0.191448
      5 C5         24.6297  113.0228   42.4930 AF             0 LIG     -0.191448
      6 C6         25.0013  111.7123   42.8394 AH             0 LIG     -0.201273
      7 C7         27.1908  112.0591   41.8147 AI             0 LIG     -0.282378
      8 C8         27.1225  114.8919   39.5817 AJ             0 LIG     0.090825
      9 C9         26.8154  113.3655   41.4331 AK             0 LIG     0.090825
     10 C10        25.8940  115.5743   39.7502 AN             0 LIG     0.113170
     11 C11        25.5290  113.8472   41.7902 AO             0 LIG     0.113170
     12 C12        26.2809  111.2333   42.5022 AP             0 LIG     0.139586
     13 C13        27.4381  117.6778   40.3992 AQ             0 LIG     -0.327670
     14 C14        29.6670  118.6167   40.8066 AV             0 LIG     -0.327670
     15 C15        28.9196  115.4298   42.6203 AW             0 LIG     -0.018552
     16 C16        28.9391  114.6282   41.2688 AX             0 LIG     0.030051
     17 C17        28.7300  116.9670   42.4159 AY             0 LIG     0.155353
     18 N1         27.6765  114.1406   40.6363 AZ             0 LIG     -0.186524
     19 N2         28.7810  117.4365   40.9958 BB             0 LIG     0.134459
     20 S1         25.0131  115.4606   41.2786 BC             0 LIG     -0.184949
     21 CL1        26.7205  109.6111   42.8892 BD             0 LIG     -0.163674
     22 H1         27.6415  115.5752   36.2673 BF             0 LIG     0.167367
     23 H2         25.5079  116.8148   36.5899 BG             0 LIG     0.167367
     24 H3         28.6588  114.3369   38.1621 BH             0 LIG     0.144463
     25 H4         24.3756  116.7819   38.8048 BJ             0 LIG     0.182657
     26 H5         23.6381  113.3804   42.7231 BK             0 LIG     0.182657
     27 H6         24.2927  111.0572   43.3255 BL             0 LIG     0.185066
     28 H7         28.1532  111.6656   41.5245 BM             0 LIG     0.159917
     29 H8         26.8834  118.4259   40.9670 BN             0 LIG     0.163775
     30 H9         26.8480  116.7634   40.3588 BO             0 LIG     0.163775
     31 H10        27.5340  118.0401   39.3773 BP             0 LIG     0.163775
     32 H11        29.2844  119.4989   41.3203 BQ             0 LIG     0.163775
     33 H12        29.7492  118.8669   39.7516 BS             0 LIG     0.163775
     34 H13        30.6787  118.4265   41.1660 BT             0 LIG     0.163775
     35 H14        28.1473  115.0427   43.2749 BU             0 LIG     0.042423
     36 H15        29.8572  115.2697   43.1321 BV             0 LIG     0.042423
     37 H16        29.4887  115.2114   40.5337 BW             0 LIG     0.092460
     38 H17        29.5476  113.7338   41.4323 BX             0 LIG     0.092460
     39 H18        27.7817  117.2763   42.8678 BY             0 LIG     0.021392
     40 H19        29.5126  117.4795   42.9821 BZ             0 LIG     0.021392
     41 H20        29.2083  116.6866   40.4618 CB             0 LIG     0.237587
@<TRIPOS>BOND
        1  1  2  2
        2  1  3  1
        3  1  22  1
        4  2  4  1
        5  2  23  1
        6  3  8  2
        7  3  24  1
        8  4  10  2
        9  4  25  1
        10  5  6  1
        11  5  11  2
        12  5  26  1
        13  6  12  2
        14  6  27  1
        15  7  9  2
        16  7  12  1
        17  7  28  1
        18  8  10  1
        19  8  18  1
        20  9  11  1
        21  9  18  1
        22  10  20  1
        23  11  20  1
        24  12  21  1
        25  13  19  1
        26  13  29  1
        27  13  30  1
        28  13  31  1
        29  14  19  1
        30  14  32  1
        31  14  33  1
        32  14  34  1
        33  15  16  1
        34  15  17  1
        35  15  35  1
        36  15  36  1
        37  16  18  1
        38  16  37  1
        39  16  38  1
        40  17  19  1
        41  17  39  1
        42  17  40  1
        43  19  41  1
@<TRIPOS>SUBSTRUCTURE
       1 LIG             1 RESIDUE    0 **** ROOT      0

