@<TRIPOS>MOLECULE
LIG
41 43
SMALL
USER_CHARGES
@<TRIPOS>ATOM
      1 C1         27.2031  115.7208   37.2737 AA             0 LIG     -0.150100
      2 C2         26.2759  111.2366   42.5030 AB             0 LIG     -0.150100
      3 C3         25.9613  116.3665   37.4507 AD             0 LIG     -0.150100
      4 C4         25.0216  111.7457   42.8996 AE             0 LIG     -0.150100
      5 C5         27.7793  114.9907   38.3358 AF             0 LIG     -0.220762
      6 C6         27.1687  112.0417   41.7648 AH             0 LIG     -0.220762
      7 C7         25.3048  116.2998   38.6924 AI             0 LIG     -0.190531
      8 C8         24.6566  113.0581   42.5509 AJ             0 LIG     -0.190531
      9 C9         27.1157  114.8934   39.5771 AK             0 LIG     0.084657
     10 C10        26.8118  113.3612   41.4162 AN             0 LIG     0.084657
     11 C11        25.8738  115.5550   39.7445 AO             0 LIG     0.115853
     12 C12        25.5408  113.8551   41.8001 AP             0 LIG     0.115853
     13 C13        27.0338  116.6777   42.1017 AQ             0 LIG     -0.353988
     14 C14        30.7891  116.3872   42.9802 AV             0 LIG     -0.185375
     15 C15        29.1253  118.0674   43.5637 AW             0 LIG     -0.185375
     16 C16        28.7425  114.9350   41.2801 AX             0 LIG     0.002465
     17 C17        28.3642  115.9447   42.4169 AY             1 LIG     0.085935
     18 N1         27.6819  114.1443   40.6326 AZ             0 LIG     -0.190232
     19 N2         29.4593  116.9600   42.6182 BB             0 LIG     0.109280
     20 S1         25.0127  115.4537   41.2817 BC             0 LIG     -0.188456
     21 H1         27.7110  115.7887   36.3192 BD             0 LIG     0.166423
     22 H2         26.5365  110.2123   42.7421 BF             0 LIG     0.166423
     23 H3         25.5157  116.9198   36.6398 BG             0 LIG     0.166423
     24 H4         24.3276  111.1223   43.4480 BH             0 LIG     0.166423
     25 H5         28.7240  114.4901   38.1795 BJ             0 LIG     0.128375
     26 H6         28.1059  111.6230   41.4320 BK             0 LIG     0.128375
     27 H7         24.3630  116.8089   38.8396 BL             0 LIG     0.178440
     28 H8         23.6809  113.4400   42.8191 BM             0 LIG     0.178440
     29 H9         26.2077  116.0080   41.8802 BN             0 LIG     0.122803
     30 H10        27.1321  117.3309   41.2343 BO             0 LIG     0.122803
     31 H11        26.6738  117.2675   42.9440 BP             0 LIG     0.122803
     32 H12        30.7305  115.7823   43.8854 BQ             0 LIG     0.123915
     33 H13        31.5192  117.1808   43.1651 BS             0 LIG     0.123915
     34 H14        31.2341  115.7853   42.1890 BT             0 LIG     0.123915
     35 H15        28.8314  117.6703   44.5374 BU             0 LIG     0.123915
     36 H16        28.3236  118.7018   43.1810 BV             0 LIG     0.123915
     37 H17        29.9838  118.7288   43.7134 BW             0 LIG     0.123915
     38 H18        29.3476  115.4487   40.5363 BX             0 LIG     0.090289
     39 H19        29.3949  114.1649   41.6858 BY             0 LIG     0.090289
     40 H20        28.2532  115.3964   43.3522 BZ             0 LIG     0.141962
     41 H21        29.5920  117.3942   41.7182 CB             0 LIG     0.213953
@<TRIPOS>BOND
        1  1  3  2
        2  1  5  1
        3  1  21  1
        4  2  4  2
        5  2  6  1
        6  2  22  1
        7  3  7  1
        8  3  23  1
        9  4  8  1
        10  4  24  1
        11  5  9  2
        12  5  25  1
        13  6  10  2
        14  6  26  1
        15  7  11  2
        16  7  27  1
        17  8  12  2
        18  8  28  1
        19  9  11  1
        20  9  18  1
        21  10  12  1
        22  10  18  1
        23  11  20  1
        24  12  20  1
        25  13  17  1
        26  13  29  1
        27  13  30  1
        28  13  31  1
        29  14  19  1
        30  14  32  1
        31  14  33  1
        32  14  34  1
        33  15  19  1
        34  15  35  1
        35  15  36  1
        36  15  37  1
        37  16  17  1
        38  16  18  1
        39  16  38  1
        40  16  39  1
        41  17  19  1
        42  17  40  1
        43  19  41  1
@<TRIPOS>SUBSTRUCTURE
       1 LIG             1 RESIDUE    0 **** ROOT      0

