@<TRIPOS>MOLECULE
LIG
41 43
SMALL
USER_CHARGES
@<TRIPOS>ATOM
      1 C1         27.4890  116.0057   37.4667 PA             0 LIG     -0.151978
      2 C2         26.2674  111.2380   42.5063 PB             0 LIG     -0.151978
      3 C3         26.2389  116.6004   37.5655 PD             0 LIG     -0.151978
      4 C4         25.0438  111.7580   42.9406 PE             0 LIG     -0.151978
      5 C5         27.9484  115.0910   38.4425 PF             0 LIG     -0.221382
      6 C6         27.1367  112.0574   41.7814 PH             0 LIG     -0.221382
      7 C7         25.5160  116.5089   38.7690 PI             0 LIG     -0.192007
      8 C8         24.6949  113.1361   42.6328 PJ             0 LIG     -0.192007
      9 C9         27.1789  114.9403   39.5662 PK             0 LIG     0.086899
     10 C10        26.7642  113.3442   41.3989 PN             0 LIG     0.086899
     11 C11        26.0126  115.6624   39.8023 PO             0 LIG     0.115779
     12 C12        25.5664  113.8989   41.8562 PP             0 LIG     0.115779
     13 C13        29.5741  117.5618   39.5469 PQ             0 LIG     -0.319173
     14 C14        29.4646  119.2663   41.2144 PV             0 LIG     -0.319173
     15 C15        28.8667  115.6004   42.4157 PW             0 LIG     -0.018118
     16 C16        29.0457  114.5508   41.1968 PX             0 LIG     0.036275
     17 C17        28.4315  116.9743   41.8440 PY             0 LIG     0.012268
     18 N1         27.6853  114.1555   40.6263 PZ             0 LIG     -0.191498
     19 N2         29.6198  117.8105   41.1162 QB             0 LIG     0.153200
     20 S1         25.0179  115.4411   41.2847 QC             0 LIG     -0.201542
     21 H1         28.0870  116.1514   36.5839 QD             0 LIG     0.160898
     22 H2         26.6560  110.2514   42.8196 QF             0 LIG     0.160898
     23 H3         25.8251  117.1782   36.7333 QG             0 LIG     0.160898
     24 H4         24.3695  111.1818   43.5776 QH             0 LIG     0.160898
     25 H5         28.8833  114.5778   38.1997 QJ             0 LIG     0.134456
     26 H6         28.0597  111.6263   41.4255 QK             0 LIG     0.134456
     27 H7         24.6687  117.1405   38.9583 QL             0 LIG     0.174337
     28 H8         23.6891  113.5588   42.9365 QM             0 LIG     0.174337
     29 H9         29.9927  116.5606   39.2824 QN             0 LIG     0.158404
     30 H10        30.1226  118.4042   39.1261 QO             0 LIG     0.158404
     31 H11        28.5325  117.6797   39.2140 QP             0 LIG     0.158404
     32 H12        28.9547  119.6163   40.2920 QQ             0 LIG     0.158404
     33 H13        30.4707  119.6800   41.3423 QS             0 LIG     0.158404
     34 H14        28.9956  119.4641   42.1806 QT             0 LIG     0.158404
     35 H15        28.0446  115.2960   43.1309 QU             0 LIG     0.041463
     36 H16        29.8336  115.7246   43.0073 QV             0 LIG     0.041463
     37 H17        29.8773  114.7745   40.4415 QW             0 LIG     0.085391
     38 H18        29.4910  113.6946   41.6155 QX             0 LIG     0.085391
     39 H19        27.5135  116.9257   41.1883 QY             0 LIG     0.073022
     40 H20        28.2961  117.5779   42.7755 QZ             0 LIG     0.073022
     41 H21        30.4769  117.4325   41.5503 RB             0 LIG     0.265740
@<TRIPOS>BOND
        1  1  3  2
        2  1  5  1
        3  1  21  1
        4  2  4  2
        5  2  6  1
        6  2  22  1
        7  3  7  1
        8  3  23  1
        9  4  8  1
        10  4  24  1
        11  5  9  2
        12  5  25  1
        13  6  10  2
        14  6  26  1
        15  7  11  2
        16  7  27  1
        17  8  12  2
        18  8  28  1
        19  9  11  1
        20  9  18  1
        21  10  12  1
        22  10  18  1
        23  11  20  1
        24  12  20  1
        25  13  19  1
        26  13  29  1
        27  13  30  1
        28  13  31  1
        29  14  19  1
        30  14  32  1
        31  14  33  1
        32  14  34  1
        33  15  16  1
        34  15  17  1
        35  15  35  1
        36  15  36  1
        37  16  18  1
        38  16  37  1
        39  16  38  1
        40  17  19  1
        41  17  39  1
        42  17  40  1
        43  19  41  1
@<TRIPOS>SUBSTRUCTURE
       1 LIG             1 RESIDUE    0 **** ROOT      0

