@<TRIPOS>MOLECULE
LIG
52 55
SMALL
USER_CHARGES
@<TRIPOS>ATOM
      1 C1         27.2057  115.6999   37.2502 AA             0 LIG     -0.151259
      2 C2         25.9558  116.3239   37.4212 AB             0 LIG     -0.151259
      3 C3         27.8083  115.0195   38.3273 AD             0 LIG     -0.219304
      4 C4         25.3068  116.2671   38.6666 AE             0 LIG     -0.194592
      5 C5         24.6856  113.0668   42.5947 AF             0 LIG     -0.194592
      6 C6         25.0490  111.7573   42.9501 AH             0 LIG     -0.194592
      7 C7         27.1502  112.0177   41.7400 AI             0 LIG     -0.277127
      8 C8         27.1536  114.9329   39.5787 AJ             0 LIG     0.085655
      9 C9         26.8169  113.3495   41.4107 AK             0 LIG     0.085655
     10 C10        25.8965  115.5706   39.7403 AN             0 LIG     0.112307
     11 C11        25.5559  113.8522   41.8114 AO             0 LIG     0.112307
     12 C12        26.2754  111.2275   42.5071 AP             0 LIG     0.162844
     13 C13        28.6667  118.7139   40.0206 AQ             0 LIG     -0.032521
     14 C14        29.9654  119.4348   40.3891 AV             0 LIG     -0.034488
     15 C15        28.7473  117.2459   40.4569 AW             0 LIG     -0.055761
     16 C16        30.2734  119.2803   41.9044 AX             0 LIG     -0.006430
     17 C17        29.1229  117.0872   41.9731 AY             1 LIG     0.133288
     18 C18        30.8565  117.6810   43.7528 AZ             0 LIG     -0.176010
     19 C19        25.1870  108.7630   43.5366 BB             0 LIG     -0.159669
     20 C20        29.1507  115.5589   42.3362 BC             0 LIG     -0.036260
     21 C21        28.9890  114.5370   41.1596 BD             0 LIG     0.036576
     22 N1         27.6713  114.1546   40.6332 BF             0 LIG     -0.187743
     23 N2         30.3769  117.8518   42.3194 BG             2 LIG     -0.192054
     24 S1         25.0240  115.4526   41.2771 BH             0 LIG     -0.197945
     25 S2         26.6937  109.5594   42.9081 BJ             0 LIG     -0.259338
     26 H1         27.6854  115.7129   36.2822 BK             0 LIG     0.162335
     27 H2         25.4791  116.8154   36.5844 BL             0 LIG     0.162335
     28 H3         28.7466  114.5147   38.1556 BM             0 LIG     0.137375
     29 H4         24.3358  116.7186   38.7900 BN             0 LIG     0.176356
     30 H5         23.7237  113.4614   42.8833 BO             0 LIG     0.176356
     31 H6         24.3624  111.1412   43.5152 BP             0 LIG     0.176356
     32 H7         28.0680  111.5939   41.3651 BQ             0 LIG     0.141006
     33 H8         27.8176  119.2009   40.5028 BS             0 LIG     0.046484
     34 H9         28.4864  118.7840   38.9451 BT             0 LIG     0.046484
     35 H10        30.7913  119.0459   39.7918 BU             0 LIG     0.051372
     36 H11        29.8838  120.4962   40.1277 BV             0 LIG     0.051372
     37 H12        27.7904  116.7592   40.2237 BW             0 LIG     0.048966
     38 H13        29.4846  116.7345   39.8362 BX             0 LIG     0.048966
     39 H14        31.2088  119.7859   42.1116 BY             0 LIG     0.095743
     40 H15        29.4939  119.7997   42.4702 BZ             0 LIG     0.095743
     41 H16        28.2703  117.5356   42.5160 CB             0 LIG     0.086415
     42 H17        30.0884  118.0527   44.4130 CI             0 LIG     0.129026
     43 H18        31.8667  117.9576   44.0677 CJ             0 LIG     0.129026
     44 H19        30.9962  116.6433   43.9556 CK             0 LIG     0.129026
     45 H20        25.4335  107.8093   44.0046 CM             0 LIG     0.110256
     46 H21        24.4864  108.5718   42.7238 CN             0 LIG     0.110256
     47 H22        24.6980  109.3924   44.2819 CT             0 LIG     0.110256
     48 H23        30.1170  115.3640   42.7855 CW             0 LIG     0.037623
     49 H24        28.5075  115.3648   43.1908 DA             0 LIG     0.037623
     50 H25        29.7214  114.7601   40.3751 DB             0 LIG     0.084613
     51 H26        29.2127  113.5447   41.5544 DC             0 LIG     0.084613
     52 H27        31.0719  117.4445   41.7169 DD             0 LIG     0.326325
@<TRIPOS>BOND
        1  1  2  2
        2  1  3  1
        3  1  26  1
        4  2  4  1
        5  2  27  1
        6  3  8  2
        7  3  28  1
        8  4  10  2
        9  4  29  1
        10  5  6  1
        11  5  11  2
        12  5  30  1
        13  6  12  2
        14  6  31  1
        15  7  9  2
        16  7  12  1
        17  7  32  1
        18  8  10  1
        19  8  22  1
        20  9  11  1
        21  9  22  1
        22  10  24  1
        23  11  24  1
        24  12  25  1
        25  13  14  1
        26  13  15  1
        27  13  33  1
        28  13  34  1
        29  14  16  1
        30  14  35  1
        31  14  36  1
        32  15  17  1
        33  15  37  1
        34  15  38  1
        35  16  23  1
        36  16  39  1
        37  16  40  1
        38  17  20  1
        39  17  23  1
        40  17  41  1
        41  18  23  1
        42  18  42  1
        43  18  43  1
        44  18  44  1
        45  19  25  1
        46  19  45  1
        47  19  46  1
        48  19  47  1
        49  20  21  1
        50  20  48  1
        51  20  49  1
        52  21  22  1
        53  21  50  1
        54  21  51  1
        55  23  52  1
@<TRIPOS>SUBSTRUCTURE
       1 LIG             1 RESIDUE    0 **** ROOT      0

