@<TRIPOS>MOLECULE
LIG
52 55
SMALL
USER_CHARGES
@<TRIPOS>ATOM
      1 C1         27.1524  115.5699   37.1901 AA             0 LIG     -0.151741
      2 C2         25.8510  116.1913   37.3767 AB             0 LIG     -0.151741
      3 C3         27.7416  114.9396   38.2918 AD             0 LIG     -0.220252
      4 C4         25.2267  116.1664   38.6427 AE             0 LIG     -0.194616
      5 C5         24.6652  113.0754   42.5760 AF             0 LIG     -0.194616
      6 C6         25.0375  111.7527   42.9384 AH             0 LIG     -0.194616
      7 C7         27.1551  112.0178   41.7471 AI             0 LIG     -0.276550
      8 C8         27.1147  114.8834   39.5534 AJ             0 LIG     0.084603
      9 C9         26.8188  113.3531   41.4100 AK             0 LIG     0.084603
     10 C10        25.8475  115.5099   39.7145 AN             0 LIG     0.112404
     11 C11        25.5556  113.8459   41.7995 AO             0 LIG     0.112404
     12 C12        26.3376  111.1897   42.4973 AP             0 LIG     0.163041
     13 C13        26.7451  116.7301   41.5228 AQ             0 LIG     -0.029878
     14 C14        26.9803  117.3301   40.1313 AV             0 LIG     -0.034345
     15 C15        27.8309  117.2142   42.4896 AW             0 LIG     -0.054555
     16 C16        28.4056  117.0319   39.6339 AX             0 LIG     0.011138
     17 C17        29.2545  116.8325   41.9960 AY             1 LIG     0.149935
     18 C18        30.8149  117.3963   40.0916 AZ             0 LIG     -0.244054
     19 C19        25.2235  108.8050   43.6975 BB             0 LIG     -0.160589
     20 C20        29.6154  115.3071   42.1698 BC             0 LIG     -0.033239
     21 C21        29.1222  114.4729   40.9268 BD             0 LIG     0.039575
     22 N1         27.6837  114.1924   40.6510 BF             0 LIG     -0.187004
     23 N2         29.4378  117.4341   40.6309 BG             1 LIG     -0.070769
     24 S1         25.0233  115.4481   41.2792 BH             0 LIG     -0.197900
     25 S2         26.6911  109.5683   42.9548 BJ             0 LIG     -0.258446
     26 H1         27.5942  115.6092   36.2378 BK             0 LIG     0.161610
     27 H2         25.3614  116.6725   36.5442 BL             0 LIG     0.161610
     28 H3         28.6989  114.4751   38.1179 BM             0 LIG     0.136076
     29 H4         24.2694  116.6433   38.7819 BN             0 LIG     0.176324
     30 H5         23.7150  113.4626   42.8761 BO             0 LIG     0.176324
     31 H6         24.3569  111.1515   43.5244 BP             0 LIG     0.176324
     32 H7         28.0845  111.6006   41.4014 BQ             0 LIG     0.140791
     33 H8         25.7590  117.0184   41.8932 BS             0 LIG     0.046381
     34 H9         26.7455  115.6406   41.4656 BT             0 LIG     0.046381
     35 H10        26.2475  116.9297   39.4285 BU             0 LIG     0.049941
     36 H11        26.7997  118.4079   40.1619 BV             0 LIG     0.049941
     37 H12        27.7588  118.2985   42.5870 BW             0 LIG     0.046927
     38 H13        27.6265  116.8482   43.4932 BX             0 LIG     0.046927
     39 H14        28.5136  115.9732   39.3983 BY             0 LIG     0.081886
     40 H15        28.5611  117.5778   38.6975 BZ             0 LIG     0.081886
     41 H16        29.9414  117.3755   42.6482 CB             0 LIG     0.038290
     42 H17        31.1080  116.3815   39.8235 CI             0 LIG     0.142123
     43 H18        31.5337  117.7948   40.8083 CJ             0 LIG     0.142123
     44 H19        30.8908  118.0153   39.1910 CK             0 LIG     0.142123
     45 H20        25.4854  107.8474   44.1469 CM             0 LIG     0.110774
     46 H21        24.4598  108.6291   42.9398 CN             0 LIG     0.110774
     47 H22        24.8123  109.4483   44.4763 CT             0 LIG     0.110774
     48 H23        30.6911  115.1601   42.3038 CW             0 LIG     0.042019
     49 H24        29.1533  114.9206   43.0904 DA             0 LIG     0.042019
     50 H25        29.5103  115.0308   40.0860 DB             0 LIG     0.082888
     51 H26        29.6453  113.5279   40.8641 DC             0 LIG     0.082888
     52 H27        29.2587  118.4192   40.7735 DD             0 LIG     0.271082
@<TRIPOS>BOND
        1  1  2  2
        2  1  3  1
        3  1  26  1
        4  2  4  1
        5  2  27  1
        6  3  8  2
        7  3  28  1
        8  4  10  2
        9  4  29  1
        10  5  6  1
        11  5  11  2
        12  5  30  1
        13  6  12  2
        14  6  31  1
        15  7  9  2
        16  7  12  1
        17  7  32  1
        18  8  10  1
        19  8  22  1
        20  9  11  1
        21  9  22  1
        22  10  24  1
        23  11  24  1
        24  12  25  1
        25  13  14  1
        26  13  15  1
        27  13  33  1
        28  13  34  1
        29  14  16  1
        30  14  35  1
        31  14  36  1
        32  15  17  1
        33  15  37  1
        34  15  38  1
        35  16  23  1
        36  16  39  1
        37  16  40  1
        38  17  20  1
        39  17  23  1
        40  17  41  1
        41  18  23  1
        42  18  42  1
        43  18  43  1
        44  18  44  1
        45  19  25  1
        46  19  45  1
        47  19  46  1
        48  19  47  1
        49  20  21  1
        50  20  48  1
        51  20  49  1
        52  21  22  1
        53  21  50  1
        54  21  51  1
        55  23  52  1
@<TRIPOS>SUBSTRUCTURE
       1 LIG             1 RESIDUE    0 **** ROOT      0

