TDZNS1apsR
                    3D
 Structure written by MMmdl.
 52 55  0  0  1  0            999 V2000
   27.1524  115.5699   37.1901 C   0  0  0  0  0  0
   25.8510  116.1913   37.3767 C   0  0  0  0  0  0
   27.7416  114.9396   38.2918 C   0  0  0  0  0  0
   25.2267  116.1664   38.6427 C   0  0  0  0  0  0
   24.6652  113.0754   42.5760 C   0  0  0  0  0  0
   25.0375  111.7527   42.9384 C   0  0  0  0  0  0
   27.1551  112.0178   41.7471 C   0  0  0  0  0  0
   27.1147  114.8834   39.5534 C   0  0  0  0  0  0
   26.8188  113.3531   41.4100 C   0  0  0  0  0  0
   25.8475  115.5099   39.7145 C   0  0  0  0  0  0
   25.5556  113.8459   41.7995 C   0  0  0  0  0  0
   26.3376  111.1897   42.4973 C   0  0  0  0  0  0
   26.7451  116.7301   41.5228 C   0  0  0  0  0  0
   26.9803  117.3301   40.1313 C   0  0  0  0  0  0
   27.8309  117.2142   42.4896 C   0  0  0  0  0  0
   28.4056  117.0319   39.6339 C   0  0  0  0  0  0
   29.2545  116.8325   41.9960 C   0  0  1  0  0  0
   30.8149  117.3963   40.0916 C   0  0  0  0  0  0
   25.2235  108.8050   43.6975 C   0  0  0  0  0  0
   29.6154  115.3071   42.1698 C   0  0  0  0  0  0
   29.1222  114.4729   40.9268 C   0  0  0  0  0  0
   27.6837  114.1924   40.6510 N   0  0  0  0  0  0
   29.4378  117.4341   40.6309 N   0  3  1  0  0  0
   25.0233  115.4481   41.2792 S   0  0  0  0  0  0
   26.6911  109.5683   42.9548 S   0  0  0  0  0  0
   27.5942  115.6092   36.2378 H   0  0  0  0  0  0
   25.3614  116.6725   36.5442 H   0  0  0  0  0  0
   28.6989  114.4751   38.1179 H   0  0  0  0  0  0
   24.2694  116.6433   38.7819 H   0  0  0  0  0  0
   23.7150  113.4626   42.8761 H   0  0  0  0  0  0
   24.3569  111.1515   43.5244 H   0  0  0  0  0  0
   28.0845  111.6006   41.4014 H   0  0  0  0  0  0
   25.7590  117.0184   41.8932 H   0  0  0  0  0  0
   26.7455  115.6406   41.4656 H   0  0  0  0  0  0
   26.2475  116.9297   39.4285 H   0  0  0  0  0  0
   26.7997  118.4079   40.1619 H   0  0  0  0  0  0
   27.7588  118.2985   42.5870 H   0  0  0  0  0  0
   27.6265  116.8482   43.4932 H   0  0  0  0  0  0
   28.5136  115.9732   39.3983 H   0  0  0  0  0  0
   28.5611  117.5778   38.6975 H   0  0  0  0  0  0
   29.9414  117.3755   42.6482 H   0  0  0  0  0  0
   31.1080  116.3815   39.8235 H   0  0  0  0  0  0
   31.5337  117.7948   40.8083 H   0  0  0  0  0  0
   30.8908  118.0153   39.1910 H   0  0  0  0  0  0
   25.4854  107.8474   44.1469 H   0  0  0  0  0  0
   24.4598  108.6291   42.9398 H   0  0  0  0  0  0
   24.8123  109.4483   44.4763 H   0  0  0  0  0  0
   30.6911  115.1601   42.3038 H   0  0  0  0  0  0
   29.1533  114.9206   43.0904 H   0  0  0  0  0  0
   29.5103  115.0308   40.0860 H   0  0  0  0  0  0
   29.6453  113.5279   40.8641 H   0  0  0  0  0  0
   29.2587  118.4192   40.7735 H   0  0  0  0  0  0
  1  2  2  0  0  0
  1  3  1  0  0  0
  1 26  1  0  0  0
  2  4  1  0  0  0
  2 27  1  0  0  0
  3  8  2  0  0  0
  3 28  1  0  0  0
  4 10  2  0  0  0
  4 29  1  0  0  0
  5  6  2  0  0  0
  5 11  1  0  0  0
  5 30  1  0  0  0
  6 12  1  0  0  0
  6 31  1  0  0  0
  7  9  1  0  0  0
  7 12  2  0  0  0
  7 32  1  0  0  0
  8 10  1  0  0  0
  8 22  1  0  0  0
  9 11  2  0  0  0
  9 22  1  0  0  0
 10 24  1  0  0  0
 11 24  1  0  0  0
 12 25  1  0  0  0
 13 14  1  0  0  0
 13 15  1  0  0  0
 13 33  1  0  0  0
 13 34  1  0  0  0
 14 16  1  0  0  0
 14 35  1  0  0  0
 14 36  1  0  0  0
 15 17  1  0  0  0
 15 37  1  0  0  0
 15 38  1  0  0  0
 16 23  1  0  0  0
 16 39  1  0  0  0
 16 40  1  0  0  0
 17 20  1  0  0  0
 17 23  1  0  0  0
 17 41  1  0  0  0
 18 23  1  0  0  0
 18 42  1  0  0  0
 18 43  1  0  0  0
 18 44  1  0  0  0
 19 25  1  0  0  0
 19 45  1  0  0  0
 19 46  1  0  0  0
 19 47  1  0  0  0
 20 21  1  0  0  0
 20 48  1  0  0  0
 20 49  1  0  0  0
 21 22  1  0  0  0
 21 50  1  0  0  0
 21 51  1  0  0  0
 23 52  1  0  0  0
M  CHG  1  23   1
M  END
> <i_m_stars>
0

> <s_m_entry_id>
528

> <s_m_entry_name>
TDZNS1apsR.1

> <s_m_Source_Path>
/home/emilio/Dropbox/SAMPL9-eglab/mCD/ligsdfs

> <s_m_Source_File>
TDZNS1apsR.sdf

> <i_m_Source_File_Index>
1

> <i_lp_mmshare_version>
47013

> <s_epik_input>
W2NIXTFbY0hdW2NIXVtjSF1jKGMxMilTYzNjKFtjSF1jKFtjSF1bY0hdMylTW0NIM10pTjJbQ0gyXVtDSDJdW0NAQEhdNFtDSDJdW0NIMl1bQ0gyXVtDSDJdTjRbQ0gzXQ==

> <s_epik_cmdline>
J2VwaWtfcHl0aG9uJywgJy1waHQnLCAnNC4wJywgJy1waCcsICc3LjQnLCAnLXRuJywgJzgnLCAnLW1hJywgJzIwMCcsICctaW1hZScsICc8aW5maWxlLm1hZT4nLCAnLW9tYWUnLCAnPG91dGZpbGUubWFlPic=

> <r_epik_Ionization_Penalty>
  0.0017

> <r_epik_Ionization_Penalty_Charging>
  0.0017

> <r_epik_Ionization_Penalty_Neutral>
  0.0000

> <r_epik_State_Penalty>
  0.0011

> <r_epik_Charging_Adjusted_Penalty>
0.00279136850725907

> <i_epik_Tot_Q>
1

> <i_epik_Tot_abs_Q>
1

> <s_lp_Force_Field>
OPLS3e

> <r_lp_Energy>
57.252618

> <b_lp_Chiralities_Consistent>
1

> <s_lp_Variant>
TDZ-NS-1

> <s_m_job_name>
ligprep_4

> <chiral flag>
1

> <version>
0

> <i_f3d_flags>
0

> <s_m_subgroup_title>
bCDq->psR_copy1

> <s_m_subgroupid>
bCDq_copy1->psR_copy2

> <b_m_subgroup_collapsed>
0

$$$$
