@<TRIPOS>MOLECULE
LIG
50 53
SMALL
USER_CHARGES
@<TRIPOS>ATOM
      1 C1         27.0278  115.4233   37.1683 AA             0 LIG     -0.148793
      2 C2         25.7820  116.0577   37.3400 AB             0 LIG     -0.148793
      3 C3         27.6768  114.8274   38.2645 AD             0 LIG     -0.214109
      4 C4         25.1941  116.1012   38.6180 AE             0 LIG     -0.192215
      5 C5         24.6526  113.0518   42.5307 AF             0 LIG     -0.192215
      6 C6         25.0037  111.7327   42.8674 AH             0 LIG     -0.190417
      7 C7         27.1925  112.0604   41.8367 AI             0 LIG     -0.264320
      8 C8         27.0920  114.8451   39.5458 AJ             0 LIG     0.095370
      9 C9         26.8377  113.3717   41.4525 AK             0 LIG     0.095370
     10 C10        25.8339  115.4798   39.7073 AN             0 LIG     0.116137
     11 C11        25.5508  113.8535   41.8033 AO             0 LIG     0.116137
     12 C12        26.2729  111.2259   42.5089 AP             0 LIG     -0.071581
     13 C13        29.6220  118.2075   40.5936 AQ             0 LIG     0.037365
     14 C14        27.4193  117.7078   41.3913 AV             0 LIG     0.037365
     15 C15        29.0610  118.6300   39.2169 AW             0 LIG     0.086222
     16 C16        26.8117  118.1201   40.0332 AX             0 LIG     0.086222
     17 C17        29.5501  115.0580   42.4643 AY             0 LIG     0.011333
     18 C18        29.0958  114.4498   41.0899 AZ             0 LIG     0.026484
     19 C19        29.3455  116.6134   42.4307 BB             0 LIG     0.037611
     20 N1         27.6725  114.1588   40.6309 BC             0 LIG     -0.178062
     21 N2         28.7679  117.1555   41.1846 BD             0 LIG     -0.528710
     22 N3         27.6723  119.1197   39.3612 BF             0 LIG     -0.527743
     23 F1         27.1268  109.2120   41.6899 BG             0 LIG     -0.255693
     24 F2         25.5989  109.0676   43.2129 BH             0 LIG     -0.255693
     25 F3         27.5895  109.7484   43.7357 BJ             0 LIG     -0.255693
     26 S1         25.0251  115.4501   41.2777 BK             0 LIG     -0.174420
     27 C20        26.6463  109.7805   42.7963 BL             0 LIG     0.695255
     28 H1         27.4811  115.3737   36.1891 BM             0 LIG     0.167075
     29 H2         25.2713  116.4939   36.4965 BN             0 LIG     0.167075
     30 H3         28.6128  114.3193   38.0965 BO             0 LIG     0.157041
     31 H4         24.2381  116.5830   38.7626 BP             0 LIG     0.180382
     32 H5         23.6785  113.4368   42.7837 BQ             0 LIG     0.180382
     33 H6         24.2809  111.1045   43.3700 BS             0 LIG     0.183084
     34 H7         28.1500  111.6466   41.5583 BT             0 LIG     0.171935
     35 H8         30.6361  117.8244   40.4517 BU             0 LIG     0.086347
     36 H9         29.7066  119.0693   41.2629 BV             0 LIG     0.086347
     37 H10        27.4494  118.5538   42.0823 BW             0 LIG     0.086347
     38 H11        26.7832  116.9502   41.8483 BX             0 LIG     0.086347
     39 H12        29.6795  119.4126   38.7735 BY             0 LIG     0.119217
     40 H13        29.0828  117.7842   38.5265 BZ             0 LIG     0.119217
     41 H14        26.6977  117.2440   39.3919 CB             0 LIG     0.119217
     42 H15        25.8135  118.5372   40.1764 CI             0 LIG     0.119217
     43 H16        28.9786  114.6871   43.3142 CJ             0 LIG     0.035265
     44 H17        30.6016  114.8760   42.6793 CK             0 LIG     0.035265
     45 H18        29.4620  115.1623   40.3349 CM             0 LIG     0.085093
     46 H19        29.6535  113.5118   40.9488 CN             0 LIG     0.085093
     47 H20        28.7678  116.9908   43.2851 CT             0 LIG     0.068063
     48 H21        30.3249  117.0887   42.5390 CW             0 LIG     0.068063
     49 H22        27.6858  119.9615   39.9183 DA             0 LIG     0.375757
     50 H23        27.2940  119.3299   38.4483 DB             0 LIG     0.375757
@<TRIPOS>BOND
        1  1  2  2
        2  1  3  1
        3  1  28  1
        4  2  4  1
        5  2  29  1
        6  3  8  2
        7  3  30  1
        8  4  10  2
        9  4  31  1
        10  5  6  1
        11  5  11  2
        12  5  32  1
        13  6  12  2
        14  6  33  1
        15  7  9  2
        16  7  12  1
        17  7  34  1
        18  8  10  1
        19  8  20  1
        20  9  11  1
        21  9  20  1
        22  10  26  1
        23  11  26  1
        24  12  27  1
        25  13  15  1
        26  13  21  1
        27  13  35  1
        28  13  36  1
        29  14  16  1
        30  14  21  1
        31  14  37  1
        32  14  38  1
        33  15  22  1
        34  15  39  1
        35  15  40  1
        36  16  22  1
        37  16  41  1
        38  16  42  1
        39  17  18  1
        40  17  19  1
        41  17  43  1
        42  17  44  1
        43  18  20  1
        44  18  45  1
        45  18  46  1
        46  19  21  1
        47  19  47  1
        48  19  48  1
        49  22  49  1
        50  22  50  1
        51  23  27  1
        52  24  27  1
        53  25  27  1
@<TRIPOS>SUBSTRUCTURE
       1 LIG             1 RESIDUE    0 **** ROOT      0

