@<TRIPOS>MOLECULE
LIG
50 53
SMALL
USER_CHARGES
@<TRIPOS>ATOM
      1 C1           16.438      0.300      0.589 AA            1 LIG       -0.146946
      2 C2           16.321      1.679      0.706 AB            1 LIG       -0.146946
      3 C3           15.310     -0.509      0.716 AD            1 LIG       -0.213882
      4 C4           15.078      2.244      0.970 AE            1 LIG       -0.189563
      5 C5           10.139      1.668      0.221 AF            1 LIG       -0.189563
      6 C6            9.185      0.850     -0.371 AH            1 LIG       -0.186283
      7 C7           10.607     -1.055      0.014 AI            1 LIG       -0.267664
      8 C8           14.030      0.032      0.962 AJ            1 LIG        0.094519
      9 C9           11.608     -0.250      0.597 AK            1 LIG        0.094519
     10 C10          13.947      1.435      1.109 AN            1 LIG        0.116195
     11 C11          11.330      1.129      0.712 AO            1 LIG        0.116195
     12 C12           9.407     -0.524     -0.470 AP            1 LIG       -0.069395
     13 C13          14.683     -6.444     -1.245 AQ            1 LIG       -0.041121
     14 C14          15.406     -4.258     -2.299 AV            1 LIG       -0.041121
     15 C15          14.897     -7.132     -2.610 AW            1 LIG        0.063286
     16 C16          15.609     -5.013     -3.630 AX            1 LIG        0.063286
     17 C17          13.368     -2.910     -0.285 AY            1 LIG       -0.016690
     18 C18          13.036     -2.236      1.072 AZ            1 LIG        0.028631
     19 C19          14.072     -4.266     -0.104 BB            1 LIG       -0.059139
     20 N1           12.862     -0.770      1.004 BC            1 LIG       -0.187888
     21 N2           14.308     -4.961     -1.466 BD            1 LIG       -0.035261
     22 N3           15.890     -6.432     -3.422 BF            1 LIG       -0.795699
     23 F1            8.003     -2.380     -0.211 BG            1 LIG       -0.251326
     24 F2            8.902     -2.065     -2.156 BH            1 LIG       -0.251326
     25 F3            7.274     -0.804     -1.499 BJ            1 LIG       -0.251326
     26 S1           12.434      2.202      1.550 BK            1 LIG       -0.162784
     27 C20           8.369     -1.454     -1.098 BL            1 LIG        0.697269
     28 H1           17.403     -0.144      0.393 BM            1 LIG        0.171877
     29 H2           17.192      2.309      0.606 BN            1 LIG        0.171877
     30 H3           15.467     -1.569      0.604 BO            1 LIG        0.150837
     31 H4           14.998      3.315      1.087 BP            1 LIG        0.186066
     32 H5            9.942      2.726      0.317 BQ            1 LIG        0.186066
     33 H6            8.269      1.292     -0.736 BS            1 LIG        0.189607
     34 H7           10.734     -2.119     -0.083 BT            1 LIG        0.149674
     35 H8           13.831     -6.895     -0.734 BU            1 LIG        0.093433
     36 H9           15.567     -6.475     -0.606 BV            1 LIG        0.093433
     37 H10          16.311     -4.214     -1.690 BW            1 LIG        0.093433
     38 H11          15.042     -3.254     -2.510 BX            1 LIG        0.093433
     39 H12          15.190     -8.173     -2.472 BY            1 LIG        0.105981
     40 H13          13.963     -7.103     -3.174 BZ            1 LIG        0.105981
     41 H14          14.684     -4.968     -4.207 CB            1 LIG        0.105981
     42 H15          16.407     -4.553     -4.214 CI            1 LIG        0.105981
     43 H16          12.440     -3.133     -0.808 CJ            1 LIG        0.044237
     44 H17          13.893     -2.227     -0.952 CK            1 LIG        0.044237
     45 H18          12.139     -2.683      1.504 CM            1 LIG        0.093748
     46 H19          13.793     -2.478      1.821 CN            1 LIG        0.093748
     47 H20          15.046     -4.183      0.383 CT            1 LIG        0.094892
     48 H21          13.439     -4.944      0.470 CW            1 LIG        0.094892
     49 H22          16.842     -6.613     -3.134 DA            1 LIG        0.419755
     50 H23          13.447     -4.942     -1.994 DB            1 LIG        0.340852
@<TRIPOS>BOND
        1  1  2  2
        2  1  3  1
        3  1  28  1
        4  2  4  1
        5  2  29  1
        6  3  8  2
        7  3  30  1
        8  4  10  2
        9  4  31  1
        10  5  6  1
        11  5  11  2
        12  5  32  1
        13  6  12  2
        14  6  33  1
        15  7  9  2
        16  7  12  1
        17  7  34  1
        18  8  10  1
        19  8  20  1
        20  9  11  1
        21  9  20  1
        22  10  26  1
        23  11  26  1
        24  12  27  1
        25  13  15  1
        26  13  21  1
        27  13  35  1
        28  13  36  1
        29  14  16  1
        30  14  21  1
        31  14  37  1
        32  14  38  1
        33  15  22  1
        34  15  39  1
        35  15  40  1
        36  16  22  1
        37  16  41  1
        38  16  42  1
        39  17  18  1
        40  17  19  1
        41  17  43  1
        42  17  44  1
        43  18  20  1
        44  18  45  1
        45  18  46  1
        46  19  21  1
        47  19  47  1
        48  19  48  1
        49  21  50  1
        50  22  49  1
        51  23  27  1
        52  24  27  1
        53  25  27  1
@<TRIPOS>SUBSTRUCTURE
       1 LIG             1 RESIDUE    0 **** ROOT      0
