TFP1apsR
                    3D
 Structure written by MMmdl.
 50 53  0  0  1  0            999 V2000
   27.0278  115.4233   37.1683 C   0  0  0  0  0  0
   25.7820  116.0577   37.3400 C   0  0  0  0  0  0
   27.6768  114.8274   38.2645 C   0  0  0  0  0  0
   25.1941  116.1012   38.6180 C   0  0  0  0  0  0
   24.6526  113.0518   42.5307 C   0  0  0  0  0  0
   25.0037  111.7327   42.8674 C   0  0  0  0  0  0
   27.1925  112.0604   41.8367 C   0  0  0  0  0  0
   27.0920  114.8451   39.5458 C   0  0  0  0  0  0
   26.8377  113.3717   41.4525 C   0  0  0  0  0  0
   25.8339  115.4798   39.7073 C   0  0  0  0  0  0
   25.5508  113.8535   41.8033 C   0  0  0  0  0  0
   26.2729  111.2259   42.5089 C   0  0  0  0  0  0
   29.6220  118.2075   40.5936 C   0  0  0  0  0  0
   27.4193  117.7078   41.3913 C   0  0  0  0  0  0
   29.0610  118.6300   39.2169 C   0  0  0  0  0  0
   26.8117  118.1201   40.0332 C   0  0  0  0  0  0
   29.5501  115.0580   42.4643 C   0  0  0  0  0  0
   29.0958  114.4498   41.0899 C   0  0  0  0  0  0
   29.3455  116.6134   42.4307 C   0  0  0  0  0  0
   27.6725  114.1588   40.6309 N   0  0  0  0  0  0
   28.7679  117.1555   41.1846 N   0  0  0  0  0  0
   27.6723  119.1197   39.3612 N   0  3  0  0  0  0
   27.1268  109.2120   41.6899 F   0  0  0  0  0  0
   25.5989  109.0676   43.2129 F   0  0  0  0  0  0
   27.5895  109.7484   43.7357 F   0  0  0  0  0  0
   25.0251  115.4501   41.2777 S   0  0  0  0  0  0
   26.6463  109.7805   42.7963 C   0  0  0  0  0  0
   27.4811  115.3737   36.1891 H   0  0  0  0  0  0
   25.2713  116.4939   36.4965 H   0  0  0  0  0  0
   28.6128  114.3193   38.0965 H   0  0  0  0  0  0
   24.2381  116.5830   38.7626 H   0  0  0  0  0  0
   23.6785  113.4368   42.7837 H   0  0  0  0  0  0
   24.2809  111.1045   43.3700 H   0  0  0  0  0  0
   28.1500  111.6466   41.5583 H   0  0  0  0  0  0
   30.6361  117.8244   40.4517 H   0  0  0  0  0  0
   29.7066  119.0693   41.2629 H   0  0  0  0  0  0
   27.4494  118.5538   42.0823 H   0  0  0  0  0  0
   26.7832  116.9502   41.8483 H   0  0  0  0  0  0
   29.6795  119.4126   38.7735 H   0  0  0  0  0  0
   29.0828  117.7842   38.5265 H   0  0  0  0  0  0
   26.6977  117.2440   39.3919 H   0  0  0  0  0  0
   25.8135  118.5372   40.1764 H   0  0  0  0  0  0
   28.9786  114.6871   43.3142 H   0  0  0  0  0  0
   30.6016  114.8760   42.6793 H   0  0  0  0  0  0
   29.4620  115.1623   40.3349 H   0  0  0  0  0  0
   29.6535  113.5118   40.9488 H   0  0  0  0  0  0
   28.7678  116.9908   43.2851 H   0  0  0  0  0  0
   30.3249  117.0887   42.5390 H   0  0  0  0  0  0
   27.6858  119.9615   39.9183 H   0  0  0  0  0  0
   27.2940  119.3299   38.4483 H   0  0  0  0  0  0
  1  2  2  0  0  0
  1  3  1  0  0  0
  1 28  1  0  0  0
  2  4  1  0  0  0
  2 29  1  0  0  0
  3  8  2  0  0  0
  3 30  1  0  0  0
  4 10  2  0  0  0
  4 31  1  0  0  0
  5  6  2  0  0  0
  5 11  1  0  0  0
  5 32  1  0  0  0
  6 12  1  0  0  0
  6 33  1  0  0  0
  7  9  1  0  0  0
  7 12  2  0  0  0
  7 34  1  0  0  0
  8 10  1  0  0  0
  8 20  1  0  0  0
  9 11  2  0  0  0
  9 20  1  0  0  0
 10 26  1  0  0  0
 11 26  1  0  0  0
 12 27  1  0  0  0
 13 15  1  0  0  0
 13 21  1  0  0  0
 13 35  1  0  0  0
 13 36  1  0  0  0
 14 16  1  0  0  0
 14 21  1  0  0  0
 14 37  1  0  0  0
 14 38  1  0  0  0
 15 22  1  0  0  0
 15 39  1  0  0  0
 15 40  1  0  0  0
 16 22  1  0  0  0
 16 41  1  0  0  0
 16 42  1  0  0  0
 17 18  1  0  0  0
 17 19  1  0  0  0
 17 43  1  0  0  0
 17 44  1  0  0  0
 18 20  1  0  0  0
 18 45  1  0  0  0
 18 46  1  0  0  0
 19 21  1  0  0  0
 19 47  1  0  0  0
 19 48  1  0  0  0
 22 49  1  0  0  0
 22 50  1  0  0  0
 23 27  1  0  0  0
 24 27  1  0  0  0
 25 27  1  0  0  0
M  CHG  1  22   1
M  END
> <i_m_stars>
0

> <s_m_entry_id>
530

> <s_m_entry_name>
TFP1apsR.1

> <s_m_Source_Path>
/home/emilio/Dropbox/SAMPL9-eglab/mCD/ligsdfs

> <s_m_Source_File>
TFP1apsR.sdf

> <i_m_Source_File_Index>
1

> <i_lp_mmshare_version>
47013

> <s_epik_input>
W2NIXTFbY0hdW2NIXVtjSF1jKGMxMilTYzNjKFtjSF1jKEMoRikoRilGKVtjSF1bY0hdMylOMltDSDJdW0NIMl1bQ0gyXU40W0NIMl1bQ0gyXVtOSF1bQ0gyXVtDSDJdNA==

> <s_epik_cmdline>
J2VwaWtfcHl0aG9uJywgJy1waHQnLCAnNC4wJywgJy1waCcsICc3LjQnLCAnLXRuJywgJzgnLCAnLW1hJywgJzIwMCcsICctaW1hZScsICc8aW5maWxlLm1hZT4nLCAnLW9tYWUnLCAnPG91dGZpbGUubWFlPic=

> <r_epik_Ionization_Penalty>
  0.0078

> <r_epik_Ionization_Penalty_Charging>
  0.0071

> <r_epik_Ionization_Penalty_Neutral>
  0.0007

> <r_epik_State_Penalty>
  0.0420

> <r_epik_Charging_Adjusted_Penalty>
0.0491285084707666

> <i_epik_Tot_Q>
1

> <i_epik_Tot_abs_Q>
1

> <s_lp_Force_Field>
OPLS3e

> <r_lp_Energy>
60.619284

> <b_lp_Chiralities_Consistent>
1

> <s_lp_Variant>
TFP-1

> <s_m_job_name>
ligprep_4

> <chiral flag>
1

> <version>
0

> <i_f3d_flags>
0

> <s_m_subgroup_title>
bCDq->psR_copy1

> <s_m_subgroupid>
bCDq_copy1->psR_copy2

> <b_m_subgroup_collapsed>
0

$$$$
