@<TRIPOS>MOLECULE
LIG
50 53
SMALL
USER_CHARGES
@<TRIPOS>ATOM
      1 C1         27.2546  116.0306   37.3932 AA             0 LIG     -0.146946
      2 C2         25.9806  116.5583   37.5624 AB             0 LIG     -0.146946
      3 C3         27.8334  115.2680   38.4053 AD             0 LIG     -0.213882
      4 C4         25.2982  116.3375   38.7534 AE             0 LIG     -0.189563
      5 C5         24.5973  112.9768   42.3358 AF             0 LIG     -0.189563
      6 C6         24.9667  111.7023   42.7472 AH             0 LIG     -0.186283
      7 C7         27.1652  112.0660   41.8348 AI             0 LIG     -0.267664
      8 C8         27.1604  115.0057   39.6185 AJ             0 LIG     0.094519
      9 C9         26.8160  113.3542   41.3816 AK             0 LIG     0.094519
     10 C10        25.8803  115.5830   39.7743 AN             0 LIG     0.116195
     11 C11        25.5091  113.8003   41.6739 AO             0 LIG     0.116195
     12 C12        26.2609  111.2385   42.5090 AP             0 LIG     -0.069395
     13 C13        30.2243  119.1705   40.7515 AQ             0 LIG     -0.041121
     14 C14        31.1288  117.2035   39.6418 AV             0 LIG     -0.041121
     15 C15        31.4199  120.0046   40.2288 AW             0 LIG     0.063286
     16 C16        32.3097  118.0552   39.1284 AX             0 LIG     0.063286
     17 C17        29.8498  115.4595   42.0264 AY             0 LIG     -0.016690
     18 C18        29.1210  114.3887   41.0607 AZ             0 LIG     0.028631
     19 C19        29.4677  116.8972   41.4787 BB             0 LIG     -0.059139
     20 N1         27.6991  114.1598   40.6190 BC             0 LIG     -0.187888
     21 N2         30.5758  117.7300   40.9189 BD             0 LIG     -0.035261
     22 N3         31.9278  119.4536   38.9791 BF             0 LIG     -0.795699
     23 F1         27.7476  109.9607   43.7890 BG             0 LIG     -0.251326
     24 F2         27.0731  109.1288   41.9062 BH             0 LIG     -0.251326
     25 F3         25.7382  109.1865   43.6052 BJ             0 LIG     -0.251326
     26 S1         25.0105  115.4373   41.2897 BK             0 LIG     -0.162784
     27 C20        26.7043  109.8494   42.9660 BL             0 LIG     0.697269
     28 H1         27.7938  116.2073   36.4736 BM             0 LIG     0.171877
     29 H2         25.5281  117.1480   36.7787 BN             0 LIG     0.171877
     30 H3         28.8197  114.8791   38.2079 BO             0 LIG     0.150837
     31 H4         24.3185  116.7733   38.8889 BP             0 LIG     0.186066
     32 H5         23.6004  113.3334   42.5524 BQ             0 LIG     0.186066
     33 H6         24.2436  111.0879   43.2639 BS             0 LIG     0.189607
     34 H7         28.1526  111.6669   41.6752 BT             0 LIG     0.149674
     35 H8         29.9181  119.5916   41.7091 BU             0 LIG     0.093433
     36 H9         29.3668  119.2760   40.0925 BV             0 LIG     0.093433
     37 H10        30.3415  117.1361   38.9012 BW             0 LIG     0.093433
     38 H11        31.4915  116.1943   39.7937 BX             0 LIG     0.093433
     39 H12        31.1398  121.0462   40.0657 BY             0 LIG     0.105981
     40 H13        32.2178  120.0224   40.9668 BZ             0 LIG     0.105981
     41 H14        33.1517  117.9818   39.8108 CB             0 LIG     0.105981
     42 H15        32.6699  117.6836   38.1688 CI             0 LIG     0.105981
     43 H16        29.3906  115.4576   43.0167 CJ             0 LIG     0.044237
     44 H17        30.9176  115.3945   42.1711 CK             0 LIG     0.044237
     45 H18        29.6590  114.5058   40.1104 CM             0 LIG     0.093748
     46 H19        29.2833  113.4096   41.5309 CN             0 LIG     0.093748
     47 H20        28.6975  116.8535   40.7176 CT             0 LIG     0.094892
     48 H21        29.0112  117.4905   42.2711 CW             0 LIG     0.094892
     49 H22        31.3783  119.6706   38.1503 DA             0 LIG     0.419755
     50 H23        31.3417  117.7325   41.5823 DB             0 LIG     0.340852
@<TRIPOS>BOND
        1  1  2  2
        2  1  3  1
        3  1  28  1
        4  2  4  1
        5  2  29  1
        6  3  8  2
        7  3  30  1
        8  4  10  2
        9  4  31  1
        10  5  6  1
        11  5  11  2
        12  5  32  1
        13  6  12  2
        14  6  33  1
        15  7  9  2
        16  7  12  1
        17  7  34  1
        18  8  10  1
        19  8  20  1
        20  9  11  1
        21  9  20  1
        22  10  26  1
        23  11  26  1
        24  12  27  1
        25  13  15  1
        26  13  21  1
        27  13  35  1
        28  13  36  1
        29  14  16  1
        30  14  21  1
        31  14  37  1
        32  14  38  1
        33  15  22  1
        34  15  39  1
        35  15  40  1
        36  16  22  1
        37  16  41  1
        38  16  42  1
        39  17  18  1
        40  17  19  1
        41  17  43  1
        42  17  44  1
        43  18  20  1
        44  18  45  1
        45  18  46  1
        46  19  21  1
        47  19  47  1
        48  19  48  1
        49  21  50  1
        50  22  49  1
        51  23  27  1
        52  24  27  1
        53  25  27  1
@<TRIPOS>SUBSTRUCTURE
       1 LIG             1 RESIDUE    0 **** ROOT      0

