@<TRIPOS>MOLECULE
LIG
26 28
SMALL
USER_CHARGES
@<TRIPOS>ATOM
      1 C1         24.0493  108.9909   40.4064 TA             0 LIG     -0.154775
      2 C2         21.2641  103.1424   40.3806 TB             0 LIG     -0.154775
      3 C3         25.2287  108.5956   39.7878 TD             0 LIG     -0.154775
      4 C4         22.3216  102.4825   39.7671 TE             0 LIG     -0.154775
      5 C5         22.8611  108.3129   40.1408 TF             0 LIG     -0.216337
      6 C6         21.0410  104.4931   40.1212 TH             0 LIG     -0.216337
      7 C7         25.2193  107.5082   38.9219 TI             0 LIG     -0.195515
      8 C8         23.1645  103.1819   38.9108 TJ             0 LIG     -0.195515
      9 C9         22.8107  107.2209   39.2494 TK             0 LIG     0.088793
     10 C10        21.8644  105.2287   39.2418 TN             0 LIG     0.088793
     11 C11        24.0324  106.8181   38.6639 TO             0 LIG     0.114550
     12 C12        22.9508  104.5391   38.6581 TP             0 LIG     0.114550
     13 C13        20.2521  107.1702   38.7373 TQ             0 LIG     -0.109988
     14 N1         21.5970  106.5785   38.9010 TV             0 LIG     -0.133727
     15 S1         24.1166  105.3842   37.6578 TW             0 LIG     -0.244806
     16 H1         24.0532  109.8266   41.0907 TX             0 LIG     0.151374
     17 H2         20.6114  102.6065   41.0539 TY             0 LIG     0.151374
     18 H3         26.1510  109.1199   39.9905 TZ             0 LIG     0.151374
     19 H4         22.4960  101.4349   39.9640 UB             0 LIG     0.151374
     20 H5         21.9848  108.6706   40.6533 UC             0 LIG     0.152365
     21 H6         20.1985  104.9440   40.6206 UD             0 LIG     0.152365
     22 H7         26.1454  107.1879   38.4663 UF             0 LIG     0.161016
     23 H8         24.0004  102.6688   38.4572 UG             0 LIG     0.161016
     24 H9         19.7738  106.7300   37.8611 UH             0 LIG     0.097461
     25 H10        20.3486  108.2163   38.4419 UJ             0 LIG     0.097461
     26 H11        19.6442  107.0546   39.6346 UK             0 LIG     0.097461
@<TRIPOS>BOND
        1  1  3  2
        2  1  5  1
        3  1  16  1
        4  2  4  2
        5  2  6  1
        6  2  17  1
        7  3  7  1
        8  3  18  1
        9  4  8  1
        10  4  19  1
        11  5  9  2
        12  5  20  1
        13  6  10  2
        14  6  21  1
        15  7  11  2
        16  7  22  1
        17  8  12  2
        18  8  23  1
        19  9  11  1
        20  9  14  1
        21  10  12  1
        22  10  14  1
        23  11  15  1
        24  12  15  1
        25  13  14  1
        26  13  24  1
        27  13  25  1
        28  13  26  1
@<TRIPOS>SUBSTRUCTURE
       1 LIG             1 RESIDUE    0 **** ROOT      0
