@<TRIPOS>MOLECULE
LIG
26 28
SMALL
USER_CHARGES
@<TRIPOS>ATOM
      1 C1         31.5080  116.0955   38.4494 TA             0 LIG     -0.154775
      2 C2         26.7213  112.4299   40.3754 TB             0 LIG     -0.154775
      3 C3         32.3545  114.9947   38.4075 TD             0 LIG     -0.154775
      4 C4         27.5430  111.3098   40.3508 TE             0 LIG     -0.154775
      5 C5         30.4876  116.1551   39.3968 TF             0 LIG     -0.216337
      6 C6         27.2530  113.6774   40.6952 TH             0 LIG     -0.216337
      7 C7         32.1907  113.9667   39.3288 TI             0 LIG     -0.195515
      8 C8         28.8909  111.4390   40.6657 TJ             0 LIG     -0.195515
      9 C9         30.2779  115.1191   40.3307 TK             0 LIG     0.088793
     10 C10        28.6207  113.8483   41.0000 TN             0 LIG     0.088793
     11 C11        31.1773  114.0297   40.2881 TO             0 LIG     0.114550
     12 C12        29.4247  112.6863   40.9987 TP             0 LIG     0.114550
     13 C13        28.4462  116.3021   41.7299 TQ             0 LIG     -0.109988
     14 N1         29.1919  115.1232   41.2406 TV             0 LIG     -0.133727
     15 S1         31.1052  112.7577   41.4932 TW             0 LIG     -0.244806
     16 H1         31.6390  116.9037   37.7449 TX             0 LIG     0.151374
     17 H2         25.6714  112.3341   40.1406 TY             0 LIG     0.151374
     18 H3         33.1453  114.9449   37.6736 TZ             0 LIG     0.151374
     19 H4         27.1346  110.3416   40.1010 UB             0 LIG     0.151374
     20 H5         29.8687  117.0354   39.3742 UC             0 LIG     0.152365
     21 H6         26.5653  114.5077   40.6869 UD             0 LIG     0.152365
     22 H7         32.8705  113.1269   39.3091 UF             0 LIG     0.161016
     23 H8         29.5189  110.5596   40.6699 UG             0 LIG     0.161016
     24 H9         28.5244  117.1036   40.9938 UH             0 LIG     0.097461
     25 H10        28.9663  116.7307   42.5883 UJ             0 LIG     0.097461
     26 H11        27.4087  116.0609   41.9610 UK             0 LIG     0.097461
@<TRIPOS>BOND
        1  1  3  2
        2  1  5  1
        3  1  16  1
        4  2  4  2
        5  2  6  1
        6  2  17  1
        7  3  7  1
        8  3  18  1
        9  4  8  1
        10  4  19  1
        11  5  9  2
        12  5  20  1
        13  6  10  2
        14  6  21  1
        15  7  11  2
        16  7  22  1
        17  8  12  2
        18  8  23  1
        19  9  11  1
        20  9  14  1
        21  10  12  1
        22  10  14  1
        23  11  15  1
        24  12  15  1
        25  13  14  1
        26  13  24  1
        27  13  25  1
        28  13  26  1
@<TRIPOS>SUBSTRUCTURE
       1 LIG             1 RESIDUE    0 **** ROOT      0
