PHM0appS
                    3D
 Schrodinger Suite 2019-4.
 26 28  0  0  1  0            999 V2000
   27.7823  110.7868   40.2644 C   0  0  0  0  0  0
   29.4032  116.8916   39.8593 C   0  0  0  0  0  0
   26.7356  111.1056   41.1205 C   0  0  0  0  0  0
   28.3697  117.2434   40.7187 C   0  0  0  0  0  0
   28.9546  111.5401   40.2853 C   0  0  0  0  0  0
   30.0475  115.6653   40.0096 C   0  0  0  0  0  0
   26.8743  112.1641   42.0107 C   0  0  0  0  0  0
   27.9976  116.3748   41.7383 C   0  0  0  0  0  0
   29.1199  112.6354   41.1586 C   0  0  0  0  0  0
   29.6818  114.7507   41.0207 C   0  0  0  0  0  0
   28.0532  112.9128   42.0434 C   0  0  0  0  0  0
   28.6496  115.1498   41.8993 C   0  0  0  0  0  0
   31.6121  113.1059   40.6297 C   0  0  0  0  0  0
   30.2682  113.4647   41.1301 N   0  0  0  0  0  0
   28.2054  114.1543   43.2725 S   0  0  0  0  0  0
   27.6855  109.9568   39.5800 H   0  0  0  0  0  0
   29.7028  117.5664   39.0710 H   0  0  0  0  0  0
   25.8253  110.5245   41.1057 H   0  0  0  0  0  0
   27.8665  118.1922   40.6036 H   0  0  0  0  0  0
   29.7253  111.2394   39.5967 H   0  0  0  0  0  0
   30.8339  115.4479   39.3049 H   0  0  0  0  0  0
   26.0675  112.3887   42.6938 H   0  0  0  0  0  0
   27.2105  116.6659   42.4191 H   0  0  0  0  0  0
   31.9877  113.9175   40.0047 H   0  0  0  0  0  0
   31.5266  112.2879   39.9123 H   0  0  0  0  0  0
   32.2985  112.8656   41.4416 H   0  0  0  0  0  0
  1  3  2  0  0  0
  1  5  1  0  0  0
  1 16  1  0  0  0
  2  4  2  0  0  0
  2  6  1  0  0  0
  2 17  1  0  0  0
  3  7  1  0  0  0
  3 18  1  0  0  0
  4  8  1  0  0  0
  4 19  1  0  0  0
  5  9  2  0  0  0
  5 20  1  0  0  0
  6 10  2  0  0  0
  6 21  1  0  0  0
  7 11  2  0  0  0
  7 22  1  0  0  0
  8 12  2  0  0  0
  8 23  1  0  0  0
  9 11  1  0  0  0
  9 14  1  0  0  0
 10 12  1  0  0  0
 10 14  1  0  0  0
 11 15  1  0  0  0
 12 15  1  0  0  0
 13 14  1  0  0  0
 13 24  1  0  0  0
 13 25  1  0  0  0
 13 26  1  0  0  0
M  END
> <s_m_entry_id>
199

> <s_m_Source_Path>
/nfs/egallicchio/Dropbox/sims/SAMPL9

> <s_m_Source_File>
PMZ.mol2

> <i_m_Source_File_Index>
1

> <r_epik_Ionization_Penalty>
  0.0034

> <r_epik_State_Penalty>
  0.0024

> <i_epik_Tot_Q>
1

> <i_f3d_flags>
0

> <s_m_job_name>
ligprep_4

$$$$
