@<TRIPOS>MOLECULE
LIG
26 28
SMALL
USER_CHARGES
@<TRIPOS>ATOM
      1 C1         30.2275  115.0772   44.8202 TA             0 LIG     -0.154775
      2 C2         27.5323  112.2452   39.9104 TB             0 LIG     -0.154775
      3 C3         30.9254  113.9642   45.2718 TD             0 LIG     -0.154775
      4 C4         28.0975  110.9958   40.1338 TE             0 LIG     -0.154775
      5 C5         29.9876  115.2445   43.4576 TF             0 LIG     -0.216337
      6 C6         28.2331  113.3989   40.2558 TH             0 LIG     -0.216337
      7 C7         31.3619  113.0103   44.3597 TI             0 LIG     -0.195515
      8 C8         29.3546  110.9049   40.7205 TJ             0 LIG     -0.195515
      9 C9         30.4370  114.3089   42.5025 TK             0 LIG     0.088793
     10 C10        29.5196  113.3440   40.8341 TN             0 LIG     0.088793
     11 C11        31.1115  113.1685   42.9946 TO             0 LIG     0.114550
     12 C12        30.0547  112.0594   41.0791 TP             0 LIG     0.114550
     13 C13        30.3562  115.7403   40.2947 TQ             0 LIG     -0.109988
     14 N1         30.2794  114.5088   41.1089 TV             0 LIG     -0.133727
     15 S1         31.5837  111.8691   41.9157 TW             0 LIG     -0.244806
     16 H1         29.8739  115.8148   45.5256 TX             0 LIG     0.151374
     17 H2         26.5521  112.3219   39.4633 TY             0 LIG     0.151374
     18 H3         31.1141  113.8323   46.3271 TZ             0 LIG     0.151374
     19 H4         27.5580  110.0995   39.8652 UB             0 LIG     0.151374
     20 H5         29.4415  116.1282   43.1760 UC             0 LIG     0.152365
     21 H6         27.7440  114.3369   40.0475 UD             0 LIG     0.152365
     22 H7         31.8790  112.1326   44.7204 UF             0 LIG     0.161016
     23 H8         29.7772  109.9296   40.9152 UG             0 LIG     0.161016
     24 H9         31.1611  115.6355   39.5657 UH             0 LIG     0.097461
     25 H10        30.7164  116.5637   40.9138 UJ             0 LIG     0.097461
     26 H11        29.4038  115.9745   39.8192 UK             0 LIG     0.097461
@<TRIPOS>BOND
        1  1  3  2
        2  1  5  1
        3  1  16  1
        4  2  4  2
        5  2  6  1
        6  2  17  1
        7  3  7  1
        8  3  18  1
        9  4  8  1
        10  4  19  1
        11  5  9  2
        12  5  20  1
        13  6  10  2
        14  6  21  1
        15  7  11  2
        16  7  22  1
        17  8  12  2
        18  8  23  1
        19  9  11  1
        20  9  14  1
        21  10  12  1
        22  10  14  1
        23  11  15  1
        24  12  15  1
        25  13  14  1
        26  13  24  1
        27  13  25  1
        28  13  26  1
@<TRIPOS>SUBSTRUCTURE
       1 LIG             1 RESIDUE    0 **** ROOT      0
