@<TRIPOS>MOLECULE
LIG
26 28
SMALL
USER_CHARGES
@<TRIPOS>ATOM
      1 C1         19.4152  106.9764   36.3320 TA             0 LIG     -0.154775
      2 C2         25.0816  107.9070   38.9937 TB             0 LIG     -0.154775
      3 C3         18.7882  107.5579   37.4269 TD             0 LIG     -0.154775
      4 C4         24.4856  108.4874   40.1065 TE             0 LIG     -0.154775
      5 C5         20.5972  106.2587   36.5051 TF             0 LIG     -0.216337
      6 C6         24.4256  106.8904   38.3026 TH             0 LIG     -0.216337
      7 C7         19.3347  107.4003   38.6953 TI             0 LIG     -0.195515
      8 C8         23.2432  108.0346   40.5356 TJ             0 LIG     -0.195515
      9 C9         21.1921  106.0994   37.7740 TK             0 LIG     0.088793
     10 C10        23.1547  106.4205   38.6982 TN             0 LIG     0.088793
     11 C11        20.5122  106.6702   38.8738 TO             0 LIG     0.114550
     12 C12        22.5883  107.0072   39.8521 TP             0 LIG     0.114550
     13 C13        23.0565  104.4484   37.0593 TQ             0 LIG     -0.109988
     14 N1         22.4381  105.4498   37.9540 TV             0 LIG     -0.133727
     15 S1         21.0782  106.4100   40.5131 TW             0 LIG     -0.244806
     16 H1         18.9877  107.0840   35.3459 TX             0 LIG     0.151374
     17 H2         26.0508  108.2483   38.6611 TY             0 LIG     0.151374
     18 H3         17.8727  108.1159   37.2959 TZ             0 LIG     0.151374
     19 H4         24.9902  109.2772   40.6432 UB             0 LIG     0.151374
     20 H5         21.0303  105.8345   35.6157 UC             0 LIG     0.152365
     21 H6         24.9367  106.4890   37.4423 UD             0 LIG     0.152365
     22 H7         18.8266  107.8308   39.5464 UF             0 LIG     0.161016
     23 H8         22.7971  108.4726   41.4170 UG             0 LIG     0.161016
     24 H9         24.1086  104.6997   36.9170 UH             0 LIG     0.097461
     25 H10        22.6565  104.5658   36.0507 UJ             0 LIG     0.097461
     26 H11        22.9271  103.4328   37.4333 UK             0 LIG     0.097461
@<TRIPOS>BOND
        1  1  3  2
        2  1  5  1
        3  1  16  1
        4  2  4  2
        5  2  6  1
        6  2  17  1
        7  3  7  1
        8  3  18  1
        9  4  8  1
        10  4  19  1
        11  5  9  2
        12  5  20  1
        13  6  10  2
        14  6  21  1
        15  7  11  2
        16  7  22  1
        17  8  12  2
        18  8  23  1
        19  9  11  1
        20  9  14  1
        21  10  12  1
        22  10  14  1
        23  11  15  1
        24  12  15  1
        25  13  14  1
        26  13  24  1
        27  13  25  1
        28  13  26  1
@<TRIPOS>SUBSTRUCTURE
       1 LIG             1 RESIDUE    0 **** ROOT      0
