@<TRIPOS>MOLECULE
LIG
26 28
SMALL
USER_CHARGES
@<TRIPOS>ATOM
      1 C1         24.3357  109.6168   39.7299 TA             0 LIG     -0.154775
      2 C2         22.3534  104.4936   36.5863 TB             0 LIG     -0.154775
      3 C3         25.5215  108.9735   40.0616 TD             0 LIG     -0.154775
      4 C4         23.5253  103.8194   36.9063 TE             0 LIG     -0.154775
      5 C5         23.1569  108.8844   39.6022 TF             0 LIG     -0.216337
      6 C6         21.8194  105.4236   37.4758 TH             0 LIG     -0.216337
      7 C7         25.5194  107.6017   40.2861 TI             0 LIG     -0.195515
      8 C8         24.1484  104.0641   38.1247 TJ             0 LIG     -0.195515
      9 C9         23.1233  107.4881   39.7993 TK             0 LIG     0.088793
     10 C10        22.4367  105.7116   38.7122 TN             0 LIG     0.088793
     11 C11        24.3369  106.8668   40.1719 TO             0 LIG     0.114550
     12 C12        23.6090  104.9870   39.0241 TP             0 LIG     0.114550
     13 C13        20.5547  107.1932   39.6329 TQ             0 LIG     -0.109988
     14 N1         21.9537  106.7176   39.5864 TV             0 LIG     -0.133727
     15 S1         24.3836  105.1636   40.5870 TW             0 LIG     -0.244806
     16 H1         24.3285  110.6847   39.5677 TX             0 LIG     0.151374
     17 H2         21.8599  104.3009   35.6451 TY             0 LIG     0.151374
     18 H3         26.4370  109.5382   40.1599 TZ             0 LIG     0.151374
     19 H4         23.9434  103.0995   36.2181 UB             0 LIG     0.151374
     20 H5         22.2749  109.4444   39.3436 UC             0 LIG     0.152365
     21 H6         20.9143  105.9196   37.1641 UD             0 LIG     0.152365
     22 H7         26.4394  107.1120   40.5719 UF             0 LIG     0.161016
     23 H8         25.0453  103.5174   38.3784 UG             0 LIG     0.161016
     24 H9         20.2791  107.3878   40.6704 UH             0 LIG     0.097461
     25 H10        19.8833  106.3742   39.3693 UJ             0 LIG     0.097461
     26 H11        20.4001  108.0667   38.9995 UK             0 LIG     0.097461
@<TRIPOS>BOND
        1  1  3  2
        2  1  5  1
        3  1  16  1
        4  2  4  2
        5  2  6  1
        6  2  17  1
        7  3  7  1
        8  3  18  1
        9  4  8  1
        10  4  19  1
        11  5  9  2
        12  5  20  1
        13  6  10  2
        14  6  21  1
        15  7  11  2
        16  7  22  1
        17  8  12  2
        18  8  23  1
        19  9  11  1
        20  9  14  1
        21  10  12  1
        22  10  14  1
        23  11  15  1
        24  12  15  1
        25  13  14  1
        26  13  24  1
        27  13  25  1
        28  13  26  1
@<TRIPOS>SUBSTRUCTURE
       1 LIG             1 RESIDUE    0 **** ROOT      0
