PHM0aspS
                    3D
 Schrodinger Suite 2019-4.
 26 28  0  0  1  0            999 V2000
   19.4152  106.9764   36.3320 C   0  0  0  0  0  0
   25.0816  107.9070   38.9937 C   0  0  0  0  0  0
   18.7882  107.5579   37.4269 C   0  0  0  0  0  0
   24.4856  108.4874   40.1065 C   0  0  0  0  0  0
   20.5972  106.2587   36.5051 C   0  0  0  0  0  0
   24.4256  106.8904   38.3026 C   0  0  0  0  0  0
   19.3347  107.4003   38.6953 C   0  0  0  0  0  0
   23.2432  108.0346   40.5356 C   0  0  0  0  0  0
   21.1921  106.0994   37.7740 C   0  0  0  0  0  0
   23.1547  106.4205   38.6982 C   0  0  0  0  0  0
   20.5122  106.6702   38.8738 C   0  0  0  0  0  0
   22.5883  107.0072   39.8521 C   0  0  0  0  0  0
   23.0565  104.4484   37.0593 C   0  0  0  0  0  0
   22.4381  105.4498   37.9540 N   0  0  0  0  0  0
   21.0782  106.4100   40.5131 S   0  0  0  0  0  0
   18.9877  107.0840   35.3459 H   0  0  0  0  0  0
   26.0508  108.2483   38.6611 H   0  0  0  0  0  0
   17.8727  108.1159   37.2959 H   0  0  0  0  0  0
   24.9902  109.2772   40.6432 H   0  0  0  0  0  0
   21.0303  105.8345   35.6157 H   0  0  0  0  0  0
   24.9367  106.4890   37.4423 H   0  0  0  0  0  0
   18.8266  107.8308   39.5464 H   0  0  0  0  0  0
   22.7971  108.4726   41.4170 H   0  0  0  0  0  0
   24.1086  104.6997   36.9170 H   0  0  0  0  0  0
   22.6565  104.5658   36.0507 H   0  0  0  0  0  0
   22.9271  103.4328   37.4333 H   0  0  0  0  0  0
  1  3  2  0  0  0
  1  5  1  0  0  0
  1 16  1  0  0  0
  2  4  2  0  0  0
  2  6  1  0  0  0
  2 17  1  0  0  0
  3  7  1  0  0  0
  3 18  1  0  0  0
  4  8  1  0  0  0
  4 19  1  0  0  0
  5  9  2  0  0  0
  5 20  1  0  0  0
  6 10  2  0  0  0
  6 21  1  0  0  0
  7 11  2  0  0  0
  7 22  1  0  0  0
  8 12  2  0  0  0
  8 23  1  0  0  0
  9 11  1  0  0  0
  9 14  1  0  0  0
 10 12  1  0  0  0
 10 14  1  0  0  0
 11 15  1  0  0  0
 12 15  1  0  0  0
 13 14  1  0  0  0
 13 24  1  0  0  0
 13 25  1  0  0  0
 13 26  1  0  0  0
M  END
> <s_m_entry_id>
197

> <s_m_Source_Path>
/nfs/egallicchio/Dropbox/sims/SAMPL9

> <s_m_Source_File>
PMZ.mol2

> <i_m_Source_File_Index>
1

> <r_epik_Ionization_Penalty>
  0.0034

> <r_epik_State_Penalty>
  0.0024

> <i_epik_Tot_Q>
1

> <i_f3d_flags>
0

> <s_m_job_name>
ligprep_4

$$$$
