PHM0apsR
                    3D
 Schrodinger Suite 2019-4.
 26 28  0  0  1  0            999 V2000
   30.2275  115.0772   44.8202 C   0  0  0  0  0  0
   27.5323  112.2452   39.9104 C   0  0  0  0  0  0
   30.9254  113.9642   45.2718 C   0  0  0  0  0  0
   28.0975  110.9958   40.1338 C   0  0  0  0  0  0
   29.9876  115.2445   43.4576 C   0  0  0  0  0  0
   28.2331  113.3989   40.2558 C   0  0  0  0  0  0
   31.3619  113.0103   44.3597 C   0  0  0  0  0  0
   29.3546  110.9049   40.7205 C   0  0  0  0  0  0
   30.4370  114.3089   42.5025 C   0  0  0  0  0  0
   29.5196  113.3440   40.8341 C   0  0  0  0  0  0
   31.1115  113.1685   42.9946 C   0  0  0  0  0  0
   30.0547  112.0594   41.0791 C   0  0  0  0  0  0
   30.3562  115.7403   40.2947 C   0  0  0  0  0  0
   30.2794  114.5088   41.1089 N   0  0  0  0  0  0
   31.5837  111.8691   41.9157 S   0  0  0  0  0  0
   29.8739  115.8148   45.5256 H   0  0  0  0  0  0
   26.5521  112.3219   39.4633 H   0  0  0  0  0  0
   31.1141  113.8323   46.3271 H   0  0  0  0  0  0
   27.5580  110.0995   39.8652 H   0  0  0  0  0  0
   29.4415  116.1282   43.1760 H   0  0  0  0  0  0
   27.7440  114.3369   40.0475 H   0  0  0  0  0  0
   31.8790  112.1326   44.7204 H   0  0  0  0  0  0
   29.7772  109.9296   40.9152 H   0  0  0  0  0  0
   31.1611  115.6355   39.5657 H   0  0  0  0  0  0
   30.7164  116.5637   40.9138 H   0  0  0  0  0  0
   29.4038  115.9745   39.8192 H   0  0  0  0  0  0
  1  3  2  0  0  0
  1  5  1  0  0  0
  1 16  1  0  0  0
  2  4  2  0  0  0
  2  6  1  0  0  0
  2 17  1  0  0  0
  3  7  1  0  0  0
  3 18  1  0  0  0
  4  8  1  0  0  0
  4 19  1  0  0  0
  5  9  2  0  0  0
  5 20  1  0  0  0
  6 10  2  0  0  0
  6 21  1  0  0  0
  7 11  2  0  0  0
  7 22  1  0  0  0
  8 12  2  0  0  0
  8 23  1  0  0  0
  9 11  1  0  0  0
  9 14  1  0  0  0
 10 12  1  0  0  0
 10 14  1  0  0  0
 11 15  1  0  0  0
 12 15  1  0  0  0
 13 14  1  0  0  0
 13 24  1  0  0  0
 13 25  1  0  0  0
 13 26  1  0  0  0
M  END
> <s_m_entry_id>
204

> <s_m_Source_Path>
/nfs/egallicchio/Dropbox/sims/SAMPL9

> <s_m_Source_File>
PMZ.mol2

> <i_m_Source_File_Index>
1

> <r_epik_Ionization_Penalty>
  0.0034

> <r_epik_State_Penalty>
  0.0024

> <i_epik_Tot_Q>
1

> <i_f3d_flags>
0

> <s_m_job_name>
ligprep_4

$$$$
