PMZ1aspS
                    3D
 Schrodinger Suite 2019-4.
 41 43  0  0  1  0            999 V2000
   18.9097  108.0886   37.5795 C   0  0  0  0  0  0
   24.5695  108.6928   40.3473 C   0  0  0  0  0  0
   18.2862  108.6126   38.7049 C   0  0  0  0  0  0
   23.9768  109.2137   41.4908 C   0  0  0  0  0  0
   20.0711  107.3303   37.7150 C   0  0  0  0  0  0
   23.8952  107.7415   39.5844 C   0  0  0  0  0  0
   18.8150  108.3573   39.9649 C   0  0  0  0  0  0
   22.7187  108.7663   41.8778 C   0  0  0  0  0  0
   20.6483  107.0720   38.9758 C   0  0  0  0  0  0
   22.6086  107.2799   39.9367 C   0  0  0  0  0  0
   19.9716  107.5865   40.1050 C   0  0  0  0  0  0
   22.0451  107.8037   41.1219 C   0  0  0  0  0  0
   20.9651  101.0899   38.2797 C   0  0  0  0  0  0
   22.7844  100.5950   36.5849 C   0  0  0  0  0  0
   22.2977  103.9312   38.5509 C   0  0  0  0  0  0
   22.4774  105.4237   38.1699 C   0  0  0  0  0  0
   22.4199  103.0019   37.3307 C   0  0  0  0  0  0
   21.8754  106.3796   39.1234 N   0  0  0  0  0  0
   22.3490  101.5136   37.7439 N   0  3  0  0  0  0
   20.5134  107.2039   41.7284 S   0  0  0  0  0  0
   18.4956  108.2721   36.5989 H   0  0  0  0  0  0
   25.5506  109.0299   40.0466 H   0  0  0  0  0  0
   17.3867  109.2018   38.6031 H   0  0  0  0  0  0
   24.4956  109.9530   42.0831 H   0  0  0  0  0  0
   20.5026  106.9546   36.8034 H   0  0  0  0  0  0
   24.4049  107.3846   38.7040 H   0  0  0  0  0  0
   18.3091  108.7438   40.8381 H   0  0  0  0  0  0
   22.2746  109.1566   42.7824 H   0  0  0  0  0  0
   20.2280  101.2970   37.5022 H   0  0  0  0  0  0
   20.7641  101.6575   39.1872 H   0  0  0  0  0  0
   21.0163  100.0244   38.5074 H   0  0  0  0  0  0
   22.0776  100.7338   35.7650 H   0  0  0  0  0  0
   22.7716   99.5701   36.9581 H   0  0  0  0  0  0
   23.7956  100.8872   36.2988 H   0  0  0  0  0  0
   23.1012  103.6367   39.2237 H   0  0  0  0  0  0
   21.3898  103.7738   39.1316 H   0  0  0  0  0  0
   23.5370  105.6562   38.0538 H   0  0  0  0  0  0
   22.0913  105.6178   37.1678 H   0  0  0  0  0  0
   21.6320  103.1578   36.5918 H   0  0  0  0  0  0
   23.3933  103.1271   36.8533 H   0  0  0  0  0  0
   23.0183  101.3788   38.4893 H   0  0  0  0  0  0
  1  3  2  0  0  0
  1  5  1  0  0  0
  1 21  1  0  0  0
  2  4  2  0  0  0
  2  6  1  0  0  0
  2 22  1  0  0  0
  3  7  1  0  0  0
  3 23  1  0  0  0
  4  8  1  0  0  0
  4 24  1  0  0  0
  5  9  2  0  0  0
  5 25  1  0  0  0
  6 10  2  0  0  0
  6 26  1  0  0  0
  7 11  2  0  0  0
  7 27  1  0  0  0
  8 12  2  0  0  0
  8 28  1  0  0  0
  9 11  1  0  0  0
  9 18  1  0  0  0
 10 12  1  0  0  0
 10 18  1  0  0  0
 11 20  1  0  0  0
 12 20  1  0  0  0
 13 19  1  0  0  0
 13 29  1  0  0  0
 13 30  1  0  0  0
 13 31  1  0  0  0
 14 19  1  0  0  0
 14 32  1  0  0  0
 14 33  1  0  0  0
 14 34  1  0  0  0
 15 16  1  0  0  0
 15 17  1  0  0  0
 15 35  1  0  0  0
 15 36  1  0  0  0
 16 18  1  0  0  0
 16 37  1  0  0  0
 16 38  1  0  0  0
 17 19  1  0  0  0
 17 39  1  0  0  0
 17 40  1  0  0  0
 19 41  1  0  0  0
M  CHG  1  19   1
M  END
> <s_m_entry_id>
147

> <s_m_Source_Path>
/nfs/egallicchio/Dropbox/sims/SAMPL9

> <s_m_Source_File>
PMZ.mol2

> <i_m_Source_File_Index>
1

> <r_epik_Ionization_Penalty>
  0.0034

> <r_epik_State_Penalty>
  0.0024

> <i_epik_Tot_Q>
1

> <i_f3d_flags>
0

> <s_m_job_name>
ligprep_4

$$$$
