PMZ1appS
                    3D
 Schrodinger Suite 2019-4.
 41 43  0  0  1  0            999 V2000
   28.8920  111.7663   39.6020 C   0  0  0  0  0  0
   28.3524  118.0507   39.0791 C   0  0  0  0  0  0
   27.8439  111.7366   40.5134 C   0  0  0  0  0  0
   27.3058  118.0568   39.9928 C   0  0  0  0  0  0
   29.7439  112.8682   39.5543 C   0  0  0  0  0  0
   29.3769  117.1140   39.1992 C   0  0  0  0  0  0
   27.6651  112.8008   41.3896 C   0  0  0  0  0  0
   27.2982  117.1374   41.0356 C   0  0  0  0  0  0
   29.5769  113.9755   40.4120 C   0  0  0  0  0  0
   29.3904  116.1533   40.2332 C   0  0  0  0  0  0
   28.5253  113.9009   41.3533 C   0  0  0  0  0  0
   28.3301  116.2047   41.1659 C   0  0  0  0  0  0
   35.2590  114.0351   42.4323 C   0  0  0  0  0  0
   36.7495  114.8510   40.5509 C   0  0  0  0  0  0
   32.8786  115.2871   40.7925 C   0  0  0  0  0  0
   31.7375  115.2393   39.7434 C   0  0  0  0  0  0
   34.2272  114.8372   40.2041 C   0  0  0  0  0  0
   30.3783  115.1399   40.3160 N   0  0  0  0  0  0
   35.3732  114.9960   41.2300 N   0  3  0  0  0  0
   28.3151  115.1499   42.5662 S   0  0  0  0  0  0
   29.0442  110.9362   38.9280 H   0  0  0  0  0  0
   28.3684  118.7685   38.2722 H   0  0  0  0  0  0
   27.1811  110.8846   40.5519 H   0  0  0  0  0  0
   26.5088  118.7800   39.9014 H   0  0  0  0  0  0
   30.5348  112.8265   38.8255 H   0  0  0  0  0  0
   30.1539  117.1556   38.4529 H   0  0  0  0  0  0
   26.8654  112.7586   42.1153 H   0  0  0  0  0  0
   26.4947  117.1644   41.7576 H   0  0  0  0  0  0
   35.2436  113.0153   42.0447 H   0  0  0  0  0  0
   34.3443  114.2748   42.9728 H   0  0  0  0  0  0
   36.1272  114.2067   43.0700 H   0  0  0  0  0  0
   36.8184  113.8391   40.1480 H   0  0  0  0  0  0
   37.5098  115.0339   41.3115 H   0  0  0  0  0  0
   36.8056  115.6031   39.7629 H   0  0  0  0  0  0
   33.0276  116.3178   41.1092 H   0  0  0  0  0  0
   32.6032  114.7624   41.7064 H   0  0  0  0  0  0
   31.7875  116.1152   39.0948 H   0  0  0  0  0  0
   31.8946  114.4235   39.0357 H   0  0  0  0  0  0
   34.2319  113.7916   39.8915 H   0  0  0  0  0  0
   34.5025  115.4689   39.3578 H   0  0  0  0  0  0
   35.3235  115.9397   41.5888 H   0  0  0  0  0  0
  1  3  2  0  0  0
  1  5  1  0  0  0
  1 21  1  0  0  0
  2  4  2  0  0  0
  2  6  1  0  0  0
  2 22  1  0  0  0
  3  7  1  0  0  0
  3 23  1  0  0  0
  4  8  1  0  0  0
  4 24  1  0  0  0
  5  9  2  0  0  0
  5 25  1  0  0  0
  6 10  2  0  0  0
  6 26  1  0  0  0
  7 11  2  0  0  0
  7 27  1  0  0  0
  8 12  2  0  0  0
  8 28  1  0  0  0
  9 11  1  0  0  0
  9 18  1  0  0  0
 10 12  1  0  0  0
 10 18  1  0  0  0
 11 20  1  0  0  0
 12 20  1  0  0  0
 13 19  1  0  0  0
 13 29  1  0  0  0
 13 30  1  0  0  0
 13 31  1  0  0  0
 14 19  1  0  0  0
 14 32  1  0  0  0
 14 33  1  0  0  0
 14 34  1  0  0  0
 15 16  1  0  0  0
 15 17  1  0  0  0
 15 35  1  0  0  0
 15 36  1  0  0  0
 16 18  1  0  0  0
 16 37  1  0  0  0
 16 38  1  0  0  0
 17 19  1  0  0  0
 17 39  1  0  0  0
 17 40  1  0  0  0
 19 41  1  0  0  0
M  CHG  1  19   1
M  END
> <s_m_entry_id>
160

> <s_m_entry_name>
PMZ.1

> <s_m_Source_Path>
/nfs/egallicchio/Dropbox/sims/SAMPL9

> <s_m_Source_File>
PMZ.mol2

> <i_m_Source_File_Index>
1

> <s_m_source_file>
ligprep_4.maegz

> <i_m_source_file_index>
3

> <i_lp_mmshare_version>
47013

> <s_epik_input>
W2NIXTFbY0hdW2NIXVtjSF1jKGMxMilTYzNjKFtjSF1bY0hdW2NIXVtjSF0zKU4yW0NIMl1bQ0gyXVtDSDJdTihbQ0gzXSlbQ0gzXQ==

> <s_epik_cmdline>
J2VwaWtfcHl0aG9uJywgJy1waHQnLCAnNC4wJywgJy1waCcsICc3LjQnLCAnLXRuJywgJzgnLCAnLW1hJywgJzIwMCcsICctaW1hZScsICc8aW5maWxlLm1hZT4nLCAnLW9tYWUnLCAnPG91dGZpbGUubWFlPic=

> <r_epik_Ionization_Penalty>
  0.0034

> <r_epik_Ionization_Penalty_Charging>
  0.0034

> <r_epik_Ionization_Penalty_Neutral>
  0.0000

> <r_epik_State_Penalty>
  0.0024

> <r_epik_Charging_Adjusted_Penalty>
0.0058317545360184

> <i_epik_Tot_Q>
1

> <i_epik_Tot_abs_Q>
1

> <i_f3d_flags>
0

> <s_lp_Force_Field>
OPLS3e

> <r_lp_Energy>
55.741628

> <b_lp_Chiralities_Consistent>
1

> <s_lp_Variant>
PMZ-1

> <s_m_job_name>
ligprep_4

> <s_m_subgroup_title>
mCD->ppS

> <s_m_subgroupid>
spSmCD_copy1->ppS_copy1

> <b_m_subgroup_collapsed>
0

$$$$
