@<TRIPOS>MOLECULE
LIG
41 43
SMALL
USER_CHARGES
@<TRIPOS>ATOM
      1 C1         28.8920  111.7663   39.6020 PA             0 LIG     -0.151978
      2 C2         28.3524  118.0507   39.0791 PB             0 LIG     -0.151978
      3 C3         27.8439  111.7366   40.5134 PD             0 LIG     -0.151978
      4 C4         27.3058  118.0568   39.9928 PE             0 LIG     -0.151978
      5 C5         29.7439  112.8682   39.5543 PF             0 LIG     -0.221382
      6 C6         29.3769  117.1140   39.1992 PH             0 LIG     -0.221382
      7 C7         27.6651  112.8008   41.3896 PI             0 LIG     -0.192007
      8 C8         27.2982  117.1374   41.0356 PJ             0 LIG     -0.192007
      9 C9         29.5769  113.9755   40.4120 PK             0 LIG     0.086899
     10 C10        29.3904  116.1533   40.2332 PN             0 LIG     0.086899
     11 C11        28.5253  113.9009   41.3533 PO             0 LIG     0.115779
     12 C12        28.3301  116.2047   41.1659 PP             0 LIG     0.115779
     13 C13        35.2590  114.0351   42.4323 PQ             0 LIG     -0.319173
     14 C14        36.7495  114.8510   40.5509 PV             0 LIG     -0.319173
     15 C15        32.8786  115.2871   40.7925 PW             0 LIG     -0.018118
     16 C16        31.7375  115.2393   39.7434 PX             0 LIG     0.036275
     17 C17        34.2272  114.8372   40.2041 PY             0 LIG     0.012268
     18 N1         30.3783  115.1399   40.3160 PZ             0 LIG     -0.191498
     19 N2         35.3732  114.9960   41.2300 QB             0 LIG     0.153200
     20 S1         28.3151  115.1499   42.5662 QC             0 LIG     -0.201542
     21 H1         29.0442  110.9362   38.9280 QD             0 LIG     0.160898
     22 H2         28.3684  118.7685   38.2722 QF             0 LIG     0.160898
     23 H3         27.1811  110.8846   40.5519 QG             0 LIG     0.160898
     24 H4         26.5088  118.7800   39.9014 QH             0 LIG     0.160898
     25 H5         30.5348  112.8265   38.8255 QJ             0 LIG     0.134456
     26 H6         30.1539  117.1556   38.4529 QK             0 LIG     0.134456
     27 H7         26.8654  112.7586   42.1153 QL             0 LIG     0.174337
     28 H8         26.4947  117.1644   41.7576 QM             0 LIG     0.174337
     29 H9         35.2436  113.0153   42.0447 QN             0 LIG     0.158404
     30 H10        34.3443  114.2748   42.9728 QO             0 LIG     0.158404
     31 H11        36.1272  114.2067   43.0700 QP             0 LIG     0.158404
     32 H12        36.8184  113.8391   40.1480 QQ             0 LIG     0.158404
     33 H13        37.5098  115.0339   41.3115 QS             0 LIG     0.158404
     34 H14        36.8056  115.6031   39.7629 QT             0 LIG     0.158404
     35 H15        33.0276  116.3178   41.1092 QU             0 LIG     0.041463
     36 H16        32.6032  114.7624   41.7064 QV             0 LIG     0.041463
     37 H17        31.7875  116.1152   39.0948 QW             0 LIG     0.085391
     38 H18        31.8946  114.4235   39.0357 QX             0 LIG     0.085391
     39 H19        34.2319  113.7916   39.8915 QY             0 LIG     0.073022
     40 H20        34.5025  115.4689   39.3578 QZ             0 LIG     0.073022
     41 H21        35.3235  115.9397   41.5888 RB             0 LIG     0.265740
@<TRIPOS>BOND
        1  1  3  2
        2  1  5  1
        3  1  21  1
        4  2  4  2
        5  2  6  1
        6  2  22  1
        7  3  7  1
        8  3  23  1
        9  4  8  1
        10  4  24  1
        11  5  9  2
        12  5  25  1
        13  6  10  2
        14  6  26  1
        15  7  11  2
        16  7  27  1
        17  8  12  2
        18  8  28  1
        19  9  11  1
        20  9  18  1
        21  10  12  1
        22  10  18  1
        23  11  20  1
        24  12  20  1
        25  13  19  1
        26  13  29  1
        27  13  30  1
        28  13  31  1
        29  14  19  1
        30  14  32  1
        31  14  33  1
        32  14  34  1
        33  15  16  1
        34  15  17  1
        35  15  35  1
        36  15  36  1
        37  16  18  1
        38  16  37  1
        39  16  38  1
        40  17  19  1
        41  17  39  1
        42  17  40  1
        43  19  41  1
@<TRIPOS>SUBSTRUCTURE
       1 LIG             1 RESIDUE    0 **** ROOT      0
