@<TRIPOS>MOLECULE
LIG
41 43
SMALL
USER_CHARGES
@<TRIPOS>ATOM
      1 C1         23.9684  111.2971   38.5255 PA             0 LIG     -0.151978
      2 C2         22.5992  105.3859   40.7941 PB             0 LIG     -0.151978
      3 C3         25.3416  111.1068   38.4366 PD             0 LIG     -0.151978
      4 C4         23.9122  104.9321   40.8140 PE             0 LIG     -0.151978
      5 C5         23.1036  110.2129   38.3884 PF             0 LIG     -0.221382
      6 C6         22.2093  106.3508   39.8676 PH             0 LIG     -0.221382
      7 C7         25.8461  109.8276   38.2328 PI             0 LIG     -0.192007
      8 C8         24.8357  105.4600   39.9189 PJ             0 LIG     -0.192007
      9 C9         23.5800  108.9057   38.1569 PK             0 LIG     0.086899
     10 C10        23.1155  106.8934   38.9311 PN             0 LIG     0.086899
     11 C11        24.9824  108.7368   38.1083 PO             0 LIG     0.115779
     12 C12        24.4509  106.4363   38.9967 PP             0 LIG     0.115779
     13 C13        17.7476  109.3498   39.5069 PQ             0 LIG     -0.319173
     14 C14        16.3911  108.5806   37.5081 PV             0 LIG     -0.319173
     15 C15        20.1736  107.8661   38.1521 PW             0 LIG     -0.018118
     16 C16        21.4129  107.7911   37.2228 PX             0 LIG     0.036275
     17 C17        18.9287  108.3939   37.4179 PY             0 LIG     0.012268
     18 N1         22.7127  107.8093   37.9269 PZ             0 LIG     -0.191498
     19 N2         17.6783  108.3578   38.3267 QB             0 LIG     0.153200
     20 S1         25.6905  107.1380   37.9744 QC             0 LIG     -0.201542
     21 H1         23.5712  112.2867   38.6974 QD             0 LIG     0.160898
     22 H2         21.8795  104.9861   41.4932 QF             0 LIG     0.160898
     23 H3         26.0144  111.9452   38.5410 QG             0 LIG     0.160898
     24 H4         24.2173  104.1826   41.5293 QH             0 LIG     0.160898
     25 H5         22.0524  110.4302   38.4680 QJ             0 LIG     0.134456
     26 H6         21.1749  106.6531   39.8974 QK             0 LIG     0.134456
     27 H7         26.9162  109.6821   38.1933 QL             0 LIG     0.174337
     28 H8         25.8612  105.1214   39.9570 QM             0 LIG     0.174337
     29 H9         17.8804  110.3511   39.0944 QN             0 LIG     0.158404
     30 H10        18.5831  109.0620   40.1437 QO             0 LIG     0.158404
     31 H11        16.8100  109.2663   40.0580 QP             0 LIG     0.158404
     32 H12        16.4413  109.5797   37.0720 QQ             0 LIG     0.158404
     33 H13        15.5476  108.4821   38.1927 QS             0 LIG     0.158404
     34 H14        16.3548  107.8071   36.7398 QT             0 LIG     0.158404
     35 H15        19.9144  106.8613   38.4809 QU             0 LIG     0.041463
     36 H16        20.3975  108.4011   39.0741 QV             0 LIG     0.041463
     37 H17        21.3593  106.8988   36.5973 QW             0 LIG     0.085391
     38 H18        21.3904  108.5906   36.4803 QX             0 LIG     0.085391
     39 H19        19.0363  109.4252   37.0772 QY             0 LIG     0.073022
     40 H20        18.6901  107.7547   36.5661 QZ             0 LIG     0.073022
     41 H21        17.6187  107.4264   38.7150 RB             0 LIG     0.265740
@<TRIPOS>BOND
        1  1  3  2
        2  1  5  1
        3  1  21  1
        4  2  4  2
        5  2  6  1
        6  2  22  1
        7  3  7  1
        8  3  23  1
        9  4  8  1
        10  4  24  1
        11  5  9  2
        12  5  25  1
        13  6  10  2
        14  6  26  1
        15  7  11  2
        16  7  27  1
        17  8  12  2
        18  8  28  1
        19  9  11  1
        20  9  18  1
        21  10  12  1
        22  10  18  1
        23  11  20  1
        24  12  20  1
        25  13  19  1
        26  13  29  1
        27  13  30  1
        28  13  31  1
        29  14  19  1
        30  14  32  1
        31  14  33  1
        32  14  34  1
        33  15  16  1
        34  15  17  1
        35  15  35  1
        36  15  36  1
        37  16  18  1
        38  16  37  1
        39  16  38  1
        40  17  19  1
        41  17  39  1
        42  17  40  1
        43  19  41  1
@<TRIPOS>SUBSTRUCTURE
       1 LIG             1 RESIDUE    0 **** ROOT      0
