@<TRIPOS>MOLECULE
LIG
41 43
SMALL
USER_CHARGES
@<TRIPOS>ATOM
      1 C1         32.8330  114.4242   44.7036 PA             0 LIG     -0.151978
      2 C2         29.6886  111.5029   40.1243 PB             0 LIG     -0.151978
      3 C3         33.9045  113.5407   44.7380 PD             0 LIG     -0.151978
      4 C4         30.6084  110.4769   39.9468 PE             0 LIG     -0.151978
      5 C5         32.1705  114.6707   43.5026 PF             0 LIG     -0.221382
      6 C6         30.1224  112.7678   40.5158 PH             0 LIG     -0.221382
      7 C7         34.2958  112.8896   43.5738 PI             0 LIG     -0.192007
      8 C8         31.9579  110.7154   40.1806 PJ             0 LIG     -0.192007
      9 C9         32.5561  114.0460   42.2982 PK             0 LIG     0.086899
     10 C10        31.4868  113.0505   40.7420 PN             0 LIG     0.086899
     11 C11        33.6253  113.1245   42.3711 PO             0 LIG     0.115779
     12 C12        32.3948  111.9792   40.5850 PP             0 LIG     0.115779
     13 C13        26.9560  116.4832   40.8806 PQ             0 LIG     -0.319173
     14 C14        27.4108  118.5594   39.4986 PV             0 LIG     -0.319173
     15 C15        29.9287  115.6686   40.2307 PW             0 LIG     -0.018118
     16 C16        31.4533  115.6349   40.5123 PX             0 LIG     0.036275
     17 C17        29.3733  117.1034   40.2134 PY             0 LIG     0.012268
     18 N1         31.9513  114.3529   41.0543 PZ             0 LIG     -0.191498
     19 N2         27.8774  117.1263   39.8226 QB             0 LIG     0.153200
     20 S1         34.0935  112.1793   40.9701 QC             0 LIG     -0.201542
     21 H1         32.5157  114.9226   45.6079 QD             0 LIG     0.160898
     22 H2         28.6378  111.3212   39.9530 QF             0 LIG     0.160898
     23 H3         34.4209  113.3486   45.6670 QG             0 LIG     0.160898
     24 H4         30.2759  109.4958   39.6411 QH             0 LIG     0.160898
     25 H5         31.3495  115.3654   43.5464 QJ             0 LIG     0.134456
     26 H6         29.3605  113.5226   40.6264 QK             0 LIG     0.134456
     27 H7         35.1115  112.1820   43.6133 QL             0 LIG     0.174337
     28 H8         32.6648  109.9062   40.0658 QM             0 LIG     0.174337
     29 H9         27.1043  117.0162   41.8211 QN             0 LIG     0.158404
     30 H10        27.2218  115.4306   40.9675 QO             0 LIG     0.158404
     31 H11        25.9304  116.5827   40.5229 QP             0 LIG     0.158404
     32 H12        27.5139  119.1574   40.4057 QQ             0 LIG     0.158404
     33 H13        26.3715  118.4985   39.1728 QS             0 LIG     0.158404
     34 H14        28.0444  118.9351   38.6941 QT             0 LIG     0.158404
     35 H15        29.7421  115.2714   39.2346 QU             0 LIG     0.041463
     36 H16        29.3851  114.9970   40.8938 QV             0 LIG     0.041463
     37 H17        32.0079  115.8769   39.6044 QW             0 LIG     0.085391
     38 H18        31.7432  116.4487   41.1791 QX             0 LIG     0.085391
     39 H19        29.4504  117.6053   41.1796 QY             0 LIG     0.073022
     40 H20        29.8832  117.6995   39.4546 QZ             0 LIG     0.073022
     41 H21        27.7836  116.5900   38.9709 RB             0 LIG     0.265740
@<TRIPOS>BOND
        1  1  3  2
        2  1  5  1
        3  1  21  1
        4  2  4  2
        5  2  6  1
        6  2  22  1
        7  3  7  1
        8  3  23  1
        9  4  8  1
        10  4  24  1
        11  5  9  2
        12  5  25  1
        13  6  10  2
        14  6  26  1
        15  7  11  2
        16  7  27  1
        17  8  12  2
        18  8  28  1
        19  9  11  1
        20  9  18  1
        21  10  12  1
        22  10  18  1
        23  11  20  1
        24  12  20  1
        25  13  19  1
        26  13  29  1
        27  13  30  1
        28  13  31  1
        29  14  19  1
        30  14  32  1
        31  14  33  1
        32  14  34  1
        33  15  16  1
        34  15  17  1
        35  15  35  1
        36  15  36  1
        37  16  18  1
        38  16  37  1
        39  16  38  1
        40  17  19  1
        41  17  39  1
        42  17  40  1
        43  19  41  1
@<TRIPOS>SUBSTRUCTURE
       1 LIG             1 RESIDUE    0 **** ROOT      0
