@<TRIPOS>MOLECULE
LIG
41 43
SMALL
USER_CHARGES
@<TRIPOS>ATOM
      1 C1         29.8304  115.5801   37.6423 PA             0 LIG     -0.151978
      2 C2         27.4841  110.4548   40.5208 PB             0 LIG     -0.151978
      3 C3         30.2523  114.8038   36.5702 PD             0 LIG     -0.151978
      4 C4         27.8992  109.6490   39.4678 PE             0 LIG     -0.151978
      5 C5         29.8142  115.0434   38.9284 PF             0 LIG     -0.221382
      6 C6         28.2265  111.5806   40.8714 PH             0 LIG     -0.221382
      7 C7         30.6779  113.4992   36.7921 PI             0 LIG     -0.192007
      8 C8         29.0670  109.9620   38.7816 PJ             0 LIG     -0.192007
      9 C9         30.2163  113.7162   39.1860 PK             0 LIG     0.086899
     10 C10        29.4056  111.9393   40.1833 PN             0 LIG     0.086899
     11 C11        30.6755  112.9627   38.0819 PO             0 LIG     0.115779
     12 C12        29.8202  111.0831   39.1385 PP             0 LIG     0.115779
     13 C13        34.1312  115.1100   43.5567 PQ             0 LIG     -0.319173
     14 C14        32.8051  115.8265   45.5951 PV             0 LIG     -0.319173
     15 C15        31.4461  113.8148   42.5392 PW             0 LIG     -0.018118
     16 C16        30.0987  113.8318   41.7716 PX             0 LIG     0.036275
     17 C17        31.5519  114.9685   43.5517 PY             0 LIG     0.012268
     18 N1         30.1216  113.1284   40.4716 PZ             0 LIG     -0.191498
     19 N2         32.8508  114.8725   44.3850 QB             0 LIG     0.153200
     20 S1         31.3387  111.3547   38.3052 QC             0 LIG     -0.201542
     21 H1         29.5115  116.5989   37.4780 QD             0 LIG     0.160898
     22 H2         26.5825  110.2115   41.0635 QF             0 LIG     0.160898
     23 H3         30.2647  115.2164   35.5721 QG             0 LIG     0.160898
     24 H4         27.3249  108.7769   39.1918 QH             0 LIG     0.160898
     25 H5         29.4765  115.6986   39.7127 QJ             0 LIG     0.134456
     26 H6         27.8458  112.1694   41.6904 QK             0 LIG     0.134456
     27 H7         31.0320  112.9103   35.9581 QL             0 LIG     0.174337
     28 H8         29.3979  109.3165   37.9806 QM             0 LIG     0.174337
     29 H9         34.0541  116.0970   43.0979 QN             0 LIG     0.158404
     30 H10        34.2023  114.3220   42.8082 QO             0 LIG     0.158404
     31 H11        34.9777  115.0536   44.2422 QP             0 LIG     0.158404
     32 H12        32.7440  116.8472   45.2138 QQ             0 LIG     0.158404
     33 H13        33.7171  115.6662   46.1718 QS             0 LIG     0.158404
     34 H14        31.9262  115.5635   46.1852 QT             0 LIG     0.158404
     35 H15        31.5077  112.9021   43.1293 QU             0 LIG     0.041463
     36 H16        32.2933  113.7517   41.8577 QV             0 LIG     0.041463
     37 H17        29.3081  113.4074   42.3921 QW             0 LIG     0.085391
     38 H18        29.7480  114.8549   41.6253 QX             0 LIG     0.085391
     39 H19        31.5557  115.9534   43.0814 QY             0 LIG     0.073022
     40 H20        30.7359  114.9161   44.2745 QZ             0 LIG     0.073022
     41 H21        32.8982  113.9335   44.7562 RB             0 LIG     0.265740
@<TRIPOS>BOND
        1  1  3  2
        2  1  5  1
        3  1  21  1
        4  2  4  2
        5  2  6  1
        6  2  22  1
        7  3  7  1
        8  3  23  1
        9  4  8  1
        10  4  24  1
        11  5  9  2
        12  5  25  1
        13  6  10  2
        14  6  26  1
        15  7  11  2
        16  7  27  1
        17  8  12  2
        18  8  28  1
        19  9  11  1
        20  9  18  1
        21  10  12  1
        22  10  18  1
        23  11  20  1
        24  12  20  1
        25  13  19  1
        26  13  29  1
        27  13  30  1
        28  13  31  1
        29  14  19  1
        30  14  32  1
        31  14  33  1
        32  14  34  1
        33  15  16  1
        34  15  17  1
        35  15  35  1
        36  15  36  1
        37  16  18  1
        38  16  37  1
        39  16  38  1
        40  17  19  1
        41  17  39  1
        42  17  40  1
        43  19  41  1
@<TRIPOS>SUBSTRUCTURE
       1 LIG             1 RESIDUE    0 **** ROOT      0
