@<TRIPOS>MOLECULE
LIG
41 43
SMALL
USER_CHARGES
@<TRIPOS>ATOM
      1 C1         18.9097  108.0886   37.5795 PA             0 LIG     -0.151978
      2 C2         24.5695  108.6928   40.3473 PB             0 LIG     -0.151978
      3 C3         18.2862  108.6126   38.7049 PD             0 LIG     -0.151978
      4 C4         23.9768  109.2137   41.4908 PE             0 LIG     -0.151978
      5 C5         20.0711  107.3303   37.7150 PF             0 LIG     -0.221382
      6 C6         23.8952  107.7415   39.5844 PH             0 LIG     -0.221382
      7 C7         18.8150  108.3573   39.9649 PI             0 LIG     -0.192007
      8 C8         22.7187  108.7663   41.8778 PJ             0 LIG     -0.192007
      9 C9         20.6483  107.0720   38.9758 PK             0 LIG     0.086899
     10 C10        22.6086  107.2799   39.9367 PN             0 LIG     0.086899
     11 C11        19.9716  107.5865   40.1050 PO             0 LIG     0.115779
     12 C12        22.0451  107.8037   41.1219 PP             0 LIG     0.115779
     13 C13        20.9651  101.0899   38.2797 PQ             0 LIG     -0.319173
     14 C14        22.7844  100.5950   36.5849 PV             0 LIG     -0.319173
     15 C15        22.2977  103.9312   38.5509 PW             0 LIG     -0.018118
     16 C16        22.4774  105.4237   38.1699 PX             0 LIG     0.036275
     17 C17        22.4199  103.0019   37.3307 PY             0 LIG     0.012268
     18 N1         21.8754  106.3796   39.1234 PZ             0 LIG     -0.191498
     19 N2         22.3490  101.5136   37.7439 QB             0 LIG     0.153200
     20 S1         20.5134  107.2039   41.7284 QC             0 LIG     -0.201542
     21 H1         18.4956  108.2721   36.5989 QD             0 LIG     0.160898
     22 H2         25.5506  109.0299   40.0466 QF             0 LIG     0.160898
     23 H3         17.3867  109.2018   38.6031 QG             0 LIG     0.160898
     24 H4         24.4956  109.9530   42.0831 QH             0 LIG     0.160898
     25 H5         20.5026  106.9546   36.8034 QJ             0 LIG     0.134456
     26 H6         24.4049  107.3846   38.7040 QK             0 LIG     0.134456
     27 H7         18.3091  108.7438   40.8381 QL             0 LIG     0.174337
     28 H8         22.2746  109.1566   42.7824 QM             0 LIG     0.174337
     29 H9         20.2280  101.2970   37.5022 QN             0 LIG     0.158404
     30 H10        20.7641  101.6575   39.1872 QO             0 LIG     0.158404
     31 H11        21.0163  100.0244   38.5074 QP             0 LIG     0.158404
     32 H12        22.0776  100.7338   35.7650 QQ             0 LIG     0.158404
     33 H13        22.7716   99.5701   36.9581 QS             0 LIG     0.158404
     34 H14        23.7956  100.8872   36.2988 QT             0 LIG     0.158404
     35 H15        23.1012  103.6367   39.2237 QU             0 LIG     0.041463
     36 H16        21.3898  103.7738   39.1316 QV             0 LIG     0.041463
     37 H17        23.5370  105.6562   38.0538 QW             0 LIG     0.085391
     38 H18        22.0913  105.6178   37.1678 QX             0 LIG     0.085391
     39 H19        21.6320  103.1578   36.5918 QY             0 LIG     0.073022
     40 H20        23.3933  103.1271   36.8533 QZ             0 LIG     0.073022
     41 H21        23.0183  101.3788   38.4893 RB             0 LIG     0.265740
@<TRIPOS>BOND
        1  1  3  2
        2  1  5  1
        3  1  21  1
        4  2  4  2
        5  2  6  1
        6  2  22  1
        7  3  7  1
        8  3  23  1
        9  4  8  1
        10  4  24  1
        11  5  9  2
        12  5  25  1
        13  6  10  2
        14  6  26  1
        15  7  11  2
        16  7  27  1
        17  8  12  2
        18  8  28  1
        19  9  11  1
        20  9  18  1
        21  10  12  1
        22  10  18  1
        23  11  20  1
        24  12  20  1
        25  13  19  1
        26  13  29  1
        27  13  30  1
        28  13  31  1
        29  14  19  1
        30  14  32  1
        31  14  33  1
        32  14  34  1
        33  15  16  1
        34  15  17  1
        35  15  35  1
        36  15  36  1
        37  16  18  1
        38  16  37  1
        39  16  38  1
        40  17  19  1
        41  17  39  1
        42  17  40  1
        43  19  41  1
@<TRIPOS>SUBSTRUCTURE
       1 LIG             1 RESIDUE    0 **** ROOT      0
