@<TRIPOS>MOLECULE
LIG
41 43
SMALL
USER_CHARGES
@<TRIPOS>ATOM
      1 C1         22.2560  103.3131   40.1440 PA             0 LIG     -0.151978
      2 C2         25.6351  109.0876   40.0832 PB             0 LIG     -0.151978
      3 C3         21.5151  103.5924   41.2854 PD             0 LIG     -0.151978
      4 C4         25.0424  109.6086   41.2267 PE             0 LIG     -0.151978
      5 C5         22.7510  104.3547   39.3615 PF             0 LIG     -0.221382
      6 C6         24.9609  108.1363   39.3204 PH             0 LIG     -0.221382
      7 C7         21.2905  104.9142   41.6524 PI             0 LIG     -0.192007
      8 C8         23.7844  109.1611   41.6138 PJ             0 LIG     -0.192007
      9 C9         22.5216  105.7069   39.6910 PK             0 LIG     0.086899
     10 C10        23.6743  107.6747   39.6727 PN             0 LIG     0.086899
     11 C11        21.7966  105.9605   40.8774 PO             0 LIG     0.115779
     12 C12        23.1108  108.1986   40.8579 PP             0 LIG     0.115779
     13 C13        21.6604  102.9313   35.2383 PQ             0 LIG     -0.319173
     14 C14        22.5174  104.0226   33.1166 PV             0 LIG     -0.319173
     15 C15        23.0205  105.3315   36.7589 PW             0 LIG     -0.018118
     16 C16        23.0352  106.7505   37.3843 PX             0 LIG     0.036275
     17 C17        22.5667  105.3498   35.2888 PY             0 LIG     0.012268
     18 N1         22.9411  106.7744   38.8594 PZ             0 LIG     -0.191498
     19 N2         22.6638  103.9453   34.6493 QB             0 LIG     0.153200
     20 S1         21.5790  107.5987   41.4644 QC             0 LIG     -0.201542
     21 H1         22.4454  102.2879   39.8614 QD             0 LIG     0.160898
     22 H2         26.6163  109.4247   39.7826 QF             0 LIG     0.160898
     23 H3         21.1289  102.7873   41.8932 QG             0 LIG     0.160898
     24 H4         25.5613  110.3478   41.8191 QH             0 LIG     0.160898
     25 H5         23.3165  104.0686   38.4916 QJ             0 LIG     0.134456
     26 H6         25.4706  107.7794   38.4400 QK             0 LIG     0.134456
     27 H7         20.7379  105.1245   42.5570 QL             0 LIG     0.174337
     28 H8         23.3403  109.5514   42.5183 QM             0 LIG     0.174337
     29 H9         20.6565  103.3358   35.1001 QN             0 LIG     0.158404
     30 H10        21.8975  102.7922   36.2922 QO             0 LIG     0.158404
     31 H11        21.7905  101.9929   34.6977 QP             0 LIG     0.158404
     32 H12        21.5204  104.4071   32.8951 QQ             0 LIG     0.158404
     33 H13        22.6563  103.0143   32.7241 QS             0 LIG     0.158404
     34 H14        23.2976  104.6895   32.7473 QT             0 LIG     0.158404
     35 H15        24.0353  104.9379   36.7462 QU             0 LIG     0.041463
     36 H16        22.4671  104.6274   37.3789 QV             0 LIG     0.041463
     37 H17        23.9339  107.2869   37.0761 QW             0 LIG     0.085391
     38 H18        22.2439  107.3703   36.9593 QX             0 LIG     0.085391
     39 H19        21.5338  105.6787   35.1624 QY             0 LIG     0.073022
     40 H20        23.2244  105.9875   34.6957 QZ             0 LIG     0.073022
     41 H21        23.5940  103.5965   34.8357 RB             0 LIG     0.265740
@<TRIPOS>BOND
        1  1  3  2
        2  1  5  1
        3  1  21  1
        4  2  4  2
        5  2  6  1
        6  2  22  1
        7  3  7  1
        8  3  23  1
        9  4  8  1
        10  4  24  1
        11  5  9  2
        12  5  25  1
        13  6  10  2
        14  6  26  1
        15  7  11  2
        16  7  27  1
        17  8  12  2
        18  8  28  1
        19  9  11  1
        20  9  18  1
        21  10  12  1
        22  10  18  1
        23  11  20  1
        24  12  20  1
        25  13  19  1
        26  13  29  1
        27  13  30  1
        28  13  31  1
        29  14  19  1
        30  14  32  1
        31  14  33  1
        32  14  34  1
        33  15  16  1
        34  15  17  1
        35  15  35  1
        36  15  36  1
        37  16  18  1
        38  16  37  1
        39  16  38  1
        40  17  19  1
        41  17  39  1
        42  17  40  1
        43  19  41  1
@<TRIPOS>SUBSTRUCTURE
       1 LIG             1 RESIDUE    0 **** ROOT      0
