@<TRIPOS>MOLECULE
LIG
41 43
SMALL
USER_CHARGES
@<TRIPOS>ATOM
      1 C1         28.5327  110.9599   39.6903 PA             0 LIG     -0.151978
      2 C2         29.9499  115.2056   44.1881 PB             0 LIG     -0.151978
      3 C3         27.2175  111.3685   39.5077 PD             0 LIG     -0.151978
      4 C4         28.6980  115.8073   44.2196 PE             0 LIG     -0.151978
      5 C5         29.5042  111.8846   40.0689 PF             0 LIG     -0.221382
      6 C6         30.4292  114.6559   43.0008 PH             0 LIG     -0.221382
      7 C7         26.8745  112.6977   39.7263 PI             0 LIG     -0.192007
      8 C8         27.9215  115.8395   43.0670 PJ             0 LIG     -0.192007
      9 C9         29.1959  113.2453   40.2757 PK             0 LIG     0.086899
     10 C10        29.6762  114.6891   41.8073 PN             0 LIG     0.086899
     11 C11        27.8434  113.6243   40.1188 PO             0 LIG     0.115779
     12 C12        28.3939  115.2786   41.8780 PP             0 LIG     0.115779
     13 C13        32.8599  111.5841   36.6410 PQ             0 LIG     -0.319173
     14 C14        35.1908  112.5164   36.9939 PV             0 LIG     -0.319173
     15 C15        32.0905  113.1034   39.2910 PW             0 LIG     -0.018118
     16 C16        31.5794  114.3295   40.0913 PX             0 LIG     0.036275
     17 C17        33.2665  113.4631   38.3663 PY             0 LIG     0.012268
     18 N1         30.1868  114.2132   40.5734 PZ             0 LIG     -0.191498
     19 N2         33.8348  112.2103   37.6604 QB             0 LIG     0.153200
     20 S1         27.3181  115.2549   40.4938 QC             0 LIG     -0.201542
     21 H1         28.8025  109.9256   39.5353 QD             0 LIG     0.160898
     22 H2         30.5540  115.1694   45.0827 QF             0 LIG     0.160898
     23 H3         26.4625  110.6546   39.2130 QG             0 LIG     0.160898
     24 H4         28.3244  116.2365   45.1377 QH             0 LIG     0.160898
     25 H5         30.5024  111.5015   40.1931 QJ             0 LIG     0.134456
     26 H6         31.4113  114.2129   43.0402 QK             0 LIG     0.134456
     27 H7         25.8443  113.0031   39.6105 QL             0 LIG     0.174337
     28 H8         26.9382  116.2860   43.1050 QM             0 LIG     0.174337
     29 H9         32.6120  112.3483   35.9027 QN             0 LIG     0.158404
     30 H10        31.9772  111.2434   37.1805 QO             0 LIG     0.158404
     31 H11        33.3693  110.7359   36.1818 QP             0 LIG     0.158404
     32 H12        35.0215  113.2695   36.2225 QQ             0 LIG     0.158404
     33 H13        35.5645  111.5832   36.5703 QS             0 LIG     0.158404
     34 H14        35.8623  112.8811   37.7724 QT             0 LIG     0.158404
     35 H15        32.4819  112.3630   39.9863 QU             0 LIG     0.041463
     36 H16        31.2754  112.5902   38.7827 QV             0 LIG     0.041463
     37 H17        32.2355  114.5226   40.9413 QW             0 LIG     0.085391
     38 H18        31.6871  115.2459   39.5085 QX             0 LIG     0.085391
     39 H19        32.9934  114.1673   37.5785 QY             0 LIG     0.073022
     40 H20        34.0949  113.8731   38.9466 QZ             0 LIG     0.073022
     41 H21        34.0119  111.5191   38.3765 RB             0 LIG     0.265740
@<TRIPOS>BOND
        1  1  3  2
        2  1  5  1
        3  1  21  1
        4  2  4  2
        5  2  6  1
        6  2  22  1
        7  3  7  1
        8  3  23  1
        9  4  8  1
        10  4  24  1
        11  5  9  2
        12  5  25  1
        13  6  10  2
        14  6  26  1
        15  7  11  2
        16  7  27  1
        17  8  12  2
        18  8  28  1
        19  9  11  1
        20  9  18  1
        21  10  12  1
        22  10  18  1
        23  11  20  1
        24  12  20  1
        25  13  19  1
        26  13  29  1
        27  13  30  1
        28  13  31  1
        29  14  19  1
        30  14  32  1
        31  14  33  1
        32  14  34  1
        33  15  16  1
        34  15  17  1
        35  15  35  1
        36  15  36  1
        37  16  18  1
        38  16  37  1
        39  16  38  1
        40  17  19  1
        41  17  39  1
        42  17  40  1
        43  19  41  1
@<TRIPOS>SUBSTRUCTURE
       1 LIG             1 RESIDUE    0 **** ROOT      0
