@<TRIPOS>MOLECULE
LIG
41 43
SMALL
USER_CHARGES
@<TRIPOS>ATOM
      1 C1         25.7541  107.6851   39.9518 PA             0 LIG     -0.151978
      2 C2         19.9474  105.7537   41.5676 PB             0 LIG     -0.151978
      3 C3         25.5969  108.8403   40.7073 PD             0 LIG     -0.151978
      4 C4         19.7553  106.9016   42.3265 PE             0 LIG     -0.151978
      5 C5         24.6528  107.1084   39.3218 PF             0 LIG     -0.221382
      6 C6         20.7306  105.8026   40.4162 PH             0 LIG     -0.221382
      7 C7         24.3412  109.4274   40.8116 PI             0 LIG     -0.192007
      8 C8         20.3319  108.0993   41.9196 PJ             0 LIG     -0.192007
      9 C9         23.3605  107.6638   39.4263 PK             0 LIG     0.086899
     10 C10        21.3476  106.9967   39.9851 PN             0 LIG     0.086899
     11 C11        23.2378  108.8592   40.1704 PO             0 LIG     0.115779
     12 C12        21.1077  108.1543   40.7591 PP             0 LIG     0.115779
     13 C13        22.2973  107.8368   33.4924 PQ             0 LIG     -0.319173
     14 C14        21.9517  105.4569   32.6900 PV             0 LIG     -0.319173
     15 C15        21.7534  106.7069   36.3820 PW             0 LIG     -0.018118
     16 C16        22.1870  106.0889   37.7367 PX             0 LIG     0.036275
     17 C17        22.2525  105.8834   35.1820 PY             0 LIG     0.012268
     18 N1         22.2174  107.0415   38.8666 PZ             0 LIG     -0.191498
     19 N2         21.7193  106.4502   33.8459 QB             0 LIG     0.153200
     20 S1         21.7108  109.7182   40.2448 QC             0 LIG     -0.201542
     21 H1         26.7299  107.2321   39.8559 QD             0 LIG     0.160898
     22 H2         19.4943  104.8223   41.8739 QF             0 LIG     0.160898
     23 H3         26.4481  109.2889   41.1979 QG             0 LIG     0.160898
     24 H4         19.1507  106.8668   43.2209 QH             0 LIG     0.160898
     25 H5         24.8445  106.2152   38.7526 QJ             0 LIG     0.134456
     26 H6         20.8488  104.8761   39.8777 QK             0 LIG     0.134456
     27 H7         24.2311  110.3417   41.3770 QL             0 LIG     0.174337
     28 H8         20.1571  108.9937   42.5003 QM             0 LIG     0.174337
     29 H9         23.3838  107.7455   33.4520 QN             0 LIG     0.158404
     30 H10        21.9802  108.5423   34.2592 QO             0 LIG     0.158404
     31 H11        21.8846  108.1245   32.5245 QP             0 LIG     0.158404
     32 H12        23.0288  105.3246   32.5746 QQ             0 LIG     0.158404
     33 H13        21.5007  105.8867   31.7946 QS             0 LIG     0.158404
     34 H14        21.4575  104.5222   32.9584 QT             0 LIG     0.158404
     35 H15        20.6670  106.6908   36.3154 QU             0 LIG     0.041463
     36 H16        22.0104  107.7638   36.3247 QV             0 LIG     0.041463
     37 H17        21.5348  105.2527   37.9933 QW             0 LIG     0.085391
     38 H18        23.1585  105.5999   37.6471 QX             0 LIG     0.085391
     39 H19        23.3406  105.8618   35.0990 QY             0 LIG     0.073022
     40 H20        21.8739  104.8614   35.2383 QZ             0 LIG     0.073022
     41 H21        20.7185  106.5535   33.9441 RB             0 LIG     0.265740
@<TRIPOS>BOND
        1  1  3  2
        2  1  5  1
        3  1  21  1
        4  2  4  2
        5  2  6  1
        6  2  22  1
        7  3  7  1
        8  3  23  1
        9  4  8  1
        10  4  24  1
        11  5  9  2
        12  5  25  1
        13  6  10  2
        14  6  26  1
        15  7  11  2
        16  7  27  1
        17  8  12  2
        18  8  28  1
        19  9  11  1
        20  9  18  1
        21  10  12  1
        22  10  18  1
        23  11  20  1
        24  12  20  1
        25  13  19  1
        26  13  29  1
        27  13  30  1
        28  13  31  1
        29  14  19  1
        30  14  32  1
        31  14  33  1
        32  14  34  1
        33  15  16  1
        34  15  17  1
        35  15  35  1
        36  15  36  1
        37  16  18  1
        38  16  37  1
        39  16  38  1
        40  17  19  1
        41  17  39  1
        42  17  40  1
        43  19  41  1
@<TRIPOS>SUBSTRUCTURE
       1 LIG             1 RESIDUE    0 **** ROOT      0
