PMZ1aspS
                    3D
 Structure written by MMmdl.
 41 43  0  0  1  0            999 V2000
   24.3950  113.2967   47.2015  C    0  0  0  0  0  0
   31.0541  113.3092   48.8070  C    0  0  0  0  0  0
   23.9637  112.6222   48.3616  C    0  0  0  0  0  0
   30.9847  112.5867   49.9635  C    0  0  0  0  0  0
   25.7728  113.1495   46.8503  C    0  0  0  0  0  0
   30.0733  113.1862   47.8862  C    0  0  0  0  0  0
   24.8813  111.8834   49.1466  C    0  0  0  0  0  0
   29.8677  111.8079   50.2650  C    0  0  0  0  0  0
   26.6725  112.4203   47.6100  C    0  0  0  0  0  0
   28.9233  112.3930   48.1605  C    0  0  0  0  0  0
   26.1851  111.8044   48.8285  C    0  0  0  0  0  0
   28.8549  111.6626   49.3448  C    0  0  0  0  0  0
   26.9475  108.4271   43.3407  C    0  0  0  0  0  0
   26.1618  107.6299   45.5277  C    0  0  0  0  0  0
   28.4032  109.8083   46.4916  C    0  0  0  0  0  0
   28.2300  111.3586   46.0640  C    0  0  0  0  0  0
   28.3160  108.7689   45.2882  C    0  0  0  0  0  0
   27.9660  112.2043   47.1799  N    0  0  0  0  0  0
   26.9054  108.7023   44.7938  N    0  3  0  0  0  0
   27.3073  110.9634   49.8810  S    0  0  0  0  0  0
   23.6847  113.9225   46.6320  H    0  0  0  0  0  0
   31.8866  113.9989   48.6957  H    0  0  0  0  0  0
   22.9644  112.7271   48.5995  H    0  0  0  0  0  0
   31.7124  112.6683   50.7651  H    0  0  0  0  0  0
   26.2115  113.5830   45.9451  H    0  0  0  0  0  0
   30.1012  113.7463   46.9677  H    0  0  0  0  0  0
   24.4894  111.3619   50.0127  H    0  0  0  0  0  0
   29.7118  111.4880   51.2987  H    0  0  0  0  0  0
   27.6303  109.0459   42.8217  H    0  0  0  0  0  0
   25.9655  108.5301   42.8843  H    0  0  0  0  0  0
   27.1820  107.3844   43.2176  H    0  0  0  0  0  0
   26.5152  106.6397   45.1583  H    0  0  0  0  0  0
   25.0821  107.7022   45.2795  H    0  0  0  0  0  0
   26.2800  107.7665   46.6249  H    0  0  0  0  0  0
   29.3683  109.6956   47.0470  H    0  0  0  0  0  0
   27.6142  109.5912   47.2400  H    0  0  0  0  0  0
   29.0957  111.7647   45.4984  H    0  0  0  0  0  0
   27.3354  111.4411   45.3996  H    0  0  0  0  0  0
   28.8951  109.2310   44.4644  H    0  0  0  0  0  0
   28.5837  107.7394   45.6174  H    0  0  0  0  0  0
   26.4588  109.6390   44.8577  H    0  0  0  0  0  0
  1  3  2  0  0  0
  1  5  1  0  0  0
  1 21  1  0  0  0
  2  4  2  0  0  0
  2  6  1  0  0  0
  2 22  1  0  0  0
  3  7  1  0  0  0
  3 23  1  0  0  0
  4  8  1  0  0  0
  4 24  1  0  0  0
  5  9  2  0  0  0
  5 25  1  0  0  0
  6 10  2  0  0  0
  6 26  1  0  0  0
  7 11  2  0  0  0
  7 27  1  0  0  0
  8 12  2  0  0  0
  8 28  1  0  0  0
  9 11  1  0  0  0
  9 18  1  0  0  0
 10 12  1  0  0  0
 10 18  1  0  0  0
 11 20  1  0  0  0
 12 20  1  0  0  0
 13 19  1  0  0  0
 13 29  1  0  0  0
 13 30  1  0  0  0
 13 31  1  0  0  0
 14 19  1  0  0  0
 14 32  1  0  0  0
 14 33  1  0  0  0
 14 34  1  0  0  0
 15 16  1  0  0  0
 15 17  1  0  0  0
 15 35  1  0  0  0
 15 36  1  0  0  0
 16 18  1  0  0  0
 16 37  1  0  0  0
 16 38  1  0  0  0
 17 19  1  0  0  0
 17 39  1  0  0  0
 17 40  1  0  0  0
 19 41  1  0  0  0
M  CHG  1  19   1
M  END
> <s_m_entry_id>
147

> <s_m_entry_name>
PMZ.1

> <s_m_Source_Path>
/nfs/egallicchio/Dropbox/sims/SAMPL9

> <s_m_Source_File>
PMZ.mol2

> <i_m_Source_File_Index>
1

> <s_m_source_file>
ligprep_4.maegz

> <i_m_source_file_index>
3

> <i_lp_mmshare_version>
47013

> <s_epik_input>
W2NIXTFbY0hdW2NIXVtjSF1jKGMxMilTYzNjKFtjSF1bY0hdW2NIXVtjSF0zKU4yW0NIMl1bQ0gyXVtDSDJdTihbQ0gzXSlbQ0gzXQ==

> <s_epik_cmdline>
J2VwaWtfcHl0aG9uJywgJy1waHQnLCAnNC4wJywgJy1waCcsICc3LjQnLCAnLXRuJywgJzgnLCAnLW1hJywgJzIwMCcsICctaW1hZScsICc8aW5maWxlLm1hZT4nLCAnLW9tYWUnLCAnPG91dGZpbGUubWFlPic=

> <r_epik_Ionization_Penalty>
  0.0034

> <r_epik_Ionization_Penalty_Charging>
  0.0034

> <r_epik_Ionization_Penalty_Neutral>
  0.0000

> <r_epik_State_Penalty>
  0.0024

> <r_epik_Charging_Adjusted_Penalty>
0.0058317545360184

> <i_epik_Tot_Q>
1

> <i_epik_Tot_abs_Q>
1

> <i_f3d_flags>
0

> <s_lp_Force_Field>
OPLS3e

> <r_lp_Energy>
55.741628

> <b_lp_Chiralities_Consistent>
1

> <s_lp_Variant>
PMZ-1

> <s_m_job_name>
ligprep_4

> <s_m_subgroup_title>
mCD->spS

> <s_m_subgroupid>
spSmCD_copy1->spS_copy1

> <b_m_subgroup_collapsed>
0

$$$$

