TFP1aspS
                    3D
 Structure written by MMmdl.
 50 53  0  0  1  0            999 V2000
   24.2815  113.0620   47.1435 C   0  0  0  0  0  0
   23.8867  112.5738   48.4022 C   0  0  0  0  0  0
   25.6093  112.8923   46.7039 C   0  0  0  0  0  0
   24.8192  111.9075   49.2188 C   0  0  0  0  0  0
   29.7572  111.9954   50.4285 C   0  0  0  0  0  0
   30.9305  112.7703   50.1151 C   0  0  0  0  0  0
   30.1157  113.0901   47.8403 C   0  0  0  0  0  0
   26.5650  112.2429   47.5242 C   0  0  0  0  0  0
   28.9516  112.3354   48.1238 C   0  0  0  0  0  0
   26.1508  111.7492   48.7884 C   0  0  0  0  0  0
   28.7875  111.8167   49.4276 C   0  0  0  0  0  0
   31.0936  113.3244   48.8242 C   0  0  0  0  0  0
   26.6157  109.9633   43.4045 C   0  0  0  0  0  0
   26.1383  108.7278   45.4102 C   0  0  0  0  0  0
   25.2561  109.5639   42.8038 C   0  0  0  0  0  0
   24.7655  108.3092   44.8483 C   0  0  0  0  0  0
   28.4090  109.8507   46.1549 C   0  0  0  0  0  0
   28.2641  111.3806   46.0145 C   0  0  0  0  0  0
   28.4238  109.2212   44.7597 C   0  0  0  0  0  0
   27.9258  112.1869   47.1670 N   0  0  0  0  0  0
   27.0761  108.8950   44.2927 N   0  0  0  0  0  0
   24.2762  109.3198   43.8855 N   0  3  0  0  0  0
   32.8946  113.7353   47.4057 F   0  0  0  0  0  0
   33.1683  114.2697   49.4857 F   0  0  0  0  0  0
   31.8515  115.4435   48.2325 F   0  0  0  0  0  0
   27.3086  110.9663   49.8744 S   0  0  0  0  0  0
   32.2842  114.2102   48.4900 C   0  0  0  0  0  0
   23.5717  113.6031   46.5309 H   0  0  0  0  0  0
   22.8762  112.7328   48.7508 H   0  0  0  0  0  0
   25.8934  113.3265   45.7589 H   0  0  0  0  0  0
   24.5233  111.5601   50.1965 H   0  0  0  0  0  0
   29.6428  111.6238   51.4108 H   0  0  0  0  0  0
   31.6702  112.9574   50.8816 H   0  0  0  0  0  0
   30.2486  113.5635   46.8788 H   0  0  0  0  0  0
   27.3344  110.1004   42.5934 H   0  0  0  0  0  0
   26.5569  110.9145   43.9381 H   0  0  0  0  0  0
   26.0636  109.6463   45.9966 H   0  0  0  0  0  0
   26.4876  107.9515   46.0924 H   0  0  0  0  0  0
   24.8922  110.3527   42.1459 H   0  0  0  0  0  0
   25.3670  108.6657   42.1929 H   0  0  0  0  0  0
   24.8430  107.3364   44.3577 H   0  0  0  0  0  0
   24.0441  108.1967   45.6596 H   0  0  0  0  0  0
   29.3315  109.6373   46.6948 H   0  0  0  0  0  0
   27.6268  109.3802   46.7289 H   0  0  0  0  0  0
   29.0790  111.7604   45.3833 H   0  0  0  0  0  0
   27.3646  111.6955   45.5763 H   0  0  0  0  0  0
   28.9374  109.8809   44.0535 H   0  0  0  0  0  0
   29.0237  108.3125   44.8236 H   0  0  0  0  0  0
   24.1288  110.1868   44.3806 H   0  0  0  0  0  0
   23.4034  109.0093   43.4828 H   0  0  0  0  0  0
  1  2  2  0  0  0
  1  3  1  0  0  0
  1 28  1  0  0  0
  2  4  1  0  0  0
  2 29  1  0  0  0
  3  8  2  0  0  0
  3 30  1  0  0  0
  4 10  2  0  0  0
  4 31  1  0  0  0
  5  6  2  0  0  0
  5 11  1  0  0  0
  5 32  1  0  0  0
  6 12  1  0  0  0
  6 33  1  0  0  0
  7  9  1  0  0  0
  7 12  2  0  0  0
  7 34  1  0  0  0
  8 10  1  0  0  0
  8 20  1  0  0  0
  9 11  2  0  0  0
  9 20  1  0  0  0
 10 26  1  0  0  0
 11 26  1  0  0  0
 12 27  1  0  0  0
 13 15  1  0  0  0
 13 21  1  0  0  0
 13 35  1  0  0  0
 13 36  1  0  0  0
 14 16  1  0  0  0
 14 21  1  0  0  0
 14 37  1  0  0  0
 14 38  1  0  0  0
 15 22  1  0  0  0
 15 39  1  0  0  0
 15 40  1  0  0  0
 16 22  1  0  0  0
 16 41  1  0  0  0
 16 42  1  0  0  0
 17 18  1  0  0  0
 17 19  1  0  0  0
 17 43  1  0  0  0
 17 44  1  0  0  0
 18 20  1  0  0  0
 18 45  1  0  0  0
 18 46  1  0  0  0
 19 21  1  0  0  0
 19 47  1  0  0  0
 19 48  1  0  0  0
 22 49  1  0  0  0
 22 50  1  0  0  0
 23 27  1  0  0  0
 24 27  1  0  0  0
 25 27  1  0  0  0
M  CHG  1  22   1
M  END
> <s_m_entry_id>
435

> <s_m_entry_name>
TFP1aspS.1

> <s_m_Source_Path>
/home/emilio/Dropbox/SAMPL9-eglab/mCD/ligsdfs

> <s_m_Source_File>
TFP1aspS.sdf

> <i_m_Source_File_Index>
1

> <i_lp_mmshare_version>
47013

> <s_epik_input>
W2NIXTFbY0hdW2NIXVtjSF1jKGMxMilTYzNjKFtjSF1jKEMoRikoRilGKVtjSF1bY0hdMylOMltDSDJdW0NIMl1bQ0gyXU40W0NIMl1bQ0gyXVtOSF1bQ0gyXVtDSDJdNA==

> <s_epik_cmdline>
J2VwaWtfcHl0aG9uJywgJy1waHQnLCAnNC4wJywgJy1waCcsICc3LjQnLCAnLXRuJywgJzgnLCAnLW1hJywgJzIwMCcsICctaW1hZScsICc8aW5maWxlLm1hZT4nLCAnLW9tYWUnLCAnPG91dGZpbGUubWFlPic=

> <r_epik_Ionization_Penalty>
  0.0078

> <r_epik_Ionization_Penalty_Charging>
  0.0071

> <r_epik_Ionization_Penalty_Neutral>
  0.0007

> <r_epik_State_Penalty>
  0.0420

> <r_epik_Charging_Adjusted_Penalty>
0.0491285084707666

> <i_epik_Tot_Q>
1

> <i_epik_Tot_abs_Q>
1

> <s_lp_Force_Field>
OPLS3e

> <r_lp_Energy>
60.619284

> <b_lp_Chiralities_Consistent>
1

> <s_lp_Variant>
TFP-1

> <s_m_job_name>
ligprep_4

> <chiral flag>
1

> <version>
0

> <i_f3d_flags>
0

> <s_m_subgroup_title>
mCDq->spS

> <s_m_subgroupid>
mCDq->spS1_copy1

> <b_m_subgroup_collapsed>
0

$$$$
