CPZ1appS
                    3D
 Schrodinger Suite 2019-4.
 41 43  0  0  1  0            999 V2000
   25.4929  106.9890   45.3625 C   0  0  0  0  0  0
   24.3361  107.8058   45.5038 C   0  0  0  0  0  0
   26.7687  107.5589   45.5339 C   0  0  0  0  0  0
   24.4693  109.1725   45.8096 C   0  0  0  0  0  0
   27.2542  112.8183   44.1461 C   0  0  0  0  0  0
   28.2445  112.9265   43.1564 C   0  0  0  0  0  0
   29.2894  110.8730   43.9668 C   0  0  0  0  0  0
   26.9149  108.9404   45.8041 C   0  0  0  0  0  0
   28.2869  110.7424   44.9516 C   0  0  0  0  0  0
   25.7474  109.7386   45.9485 C   0  0  0  0  0  0
   27.2648  111.7233   45.0313 C   0  0  0  0  0  0
   29.2578  111.9564   43.0645 C   0  0  0  0  0  0
   31.1148  110.7022   50.6111 C   0  0  0  0  0  0
   33.1138  109.5038   49.8679 C   0  0  0  0  0  0
   29.8946  110.1005   47.7686 C   0  0  0  0  0  0
   29.3261  109.2239   46.5930 C   0  0  0  0  0  0
   31.0619  109.3738   48.5057 C   0  0  0  0  0  0
   28.1647  109.5885   45.7579 N   0  0  0  0  0  0
   31.8758  110.1975   49.4385 N   0  3  0  0  0  0
   25.9124  111.4894   46.1419 S   0  0  0  0  0  0
   30.4232  112.0420   41.7957 Cl  0  0  0  0  0  0
   25.3747  105.9676   45.0636 H   0  0  0  0  0  0
   23.3580  107.3906   45.3093 H   0  0  0  0  0  0
   27.6304  106.9321   45.3532 H   0  0  0  0  0  0
   23.5970  109.8007   45.8606 H   0  0  0  0  0  0
   26.4423  113.5275   44.1879 H   0  0  0  0  0  0
   28.1848  113.7152   42.4190 H   0  0  0  0  0  0
   30.0324  110.1007   43.8283 H   0  0  0  0  0  0
   30.7083  109.8814   51.2034 H   0  0  0  0  0  0
   30.2946  111.3473   50.3037 H   0  0  0  0  0  0
   31.7598  111.2910   51.2616 H   0  0  0  0  0  0
   32.9038  108.6105   50.4586 H   0  0  0  0  0  0
   33.7362  110.1499   50.4833 H   0  0  0  0  0  0
   33.7317  109.1995   49.0208 H   0  0  0  0  0  0
   30.2472  111.0506   47.3725 H   0  0  0  0  0  0
   29.1123  110.3773   48.4797 H   0  0  0  0  0  0
   30.1354  109.0859   45.8709 H   0  0  0  0  0  0
   29.1148  108.2436   46.9953 H   0  0  0  0  0  0
   30.6611  108.5069   49.0248 H   0  0  0  0  0  0
   31.7168  108.9777   47.7336 H   0  0  0  0  0  0
   32.1865  111.0077   48.9196 H   0  0  0  0  0  0
  1  2  2  0  0  0
  1  3  1  0  0  0
  1 22  1  0  0  0
  2  4  1  0  0  0
  2 23  1  0  0  0
  3  8  2  0  0  0
  3 24  1  0  0  0
  4 10  2  0  0  0
  4 25  1  0  0  0
  5  6  2  0  0  0
  5 11  1  0  0  0
  5 26  1  0  0  0
  6 12  1  0  0  0
  6 27  1  0  0  0
  7  9  1  0  0  0
  7 12  2  0  0  0
  7 28  1  0  0  0
  8 10  1  0  0  0
  8 18  1  0  0  0
  9 11  2  0  0  0
  9 18  1  0  0  0
 10 20  1  0  0  0
 11 20  1  0  0  0
 12 21  1  0  0  0
 13 19  1  0  0  0
 13 29  1  0  0  0
 13 30  1  0  0  0
 13 31  1  0  0  0
 14 19  1  0  0  0
 14 32  1  0  0  0
 14 33  1  0  0  0
 14 34  1  0  0  0
 15 16  1  0  0  0
 15 17  1  0  0  0
 15 35  1  0  0  0
 15 36  1  0  0  0
 16 18  1  0  0  0
 16 37  1  0  0  0
 16 38  1  0  0  0
 17 19  1  0  0  0
 17 39  1  0  0  0
 17 40  1  0  0  0
 19 41  1  0  0  0
M  CHG  1  19   1
M  END
> <s_m_entry_id>
625

> <s_m_Source_Path>
/home/emilio/Dropbox/SAMPL9-eglab/mCD/ligsdfs

> <s_m_Source_File>
CPZ1appS.sdf

> <i_m_Source_File_Index>
1

> <r_epik_Ionization_Penalty>
  0.0036

> <r_epik_State_Penalty>
  0.0025

> <i_epik_Tot_Q>
1

> <s_m_job_name>
ligprep_4

> <i_f3d_flags>
0

$$$$
