PMZ1appS
                    3D
 Schrodinger Suite 2019-4.
 41 43  0  0  1  0            999 V2000
   25.6363  106.9328   45.5973  C    0  0  0  0  0  0
   29.2232  111.9301   43.1128  C    0  0  0  0  0  0
   24.5222  107.6780   45.8451  C    0  0  0  0  0  0
   28.2259  112.8666   43.0909  C    0  0  0  0  0  0
   26.8705  107.5719   45.5339  C    0  0  0  0  0  0
   29.2366  110.8069   43.9921  C    0  0  0  0  0  0
   24.5718  109.0424   46.2212  C    0  0  0  0  0  0
   27.1973  112.8224   44.1179  C    0  0  0  0  0  0
   26.9919  108.9725   45.7903  C    0  0  0  0  0  0
   28.2004  110.7418   44.9144  C    0  0  0  0  0  0
   25.8185  109.7253   46.1495  C    0  0  0  0  0  0
   27.2240  111.7124   44.9873  C    0  0  0  0  0  0
   32.3590  109.5151   50.6446  C    0  0  0  0  0  0
   32.2022  111.5505   49.3257  C    0  0  0  0  0  0
   29.8452  110.3482   47.7678  C    0  0  0  0  0  0
   29.2924  109.2881   46.7701  C    0  0  0  0  0  0
   30.8180  109.6998   48.7630  C    0  0  0  0  0  0
   28.1806  109.6068   45.7308  N    0  0  0  0  0  0
   31.3672  110.4808   49.9108  N    0  3  0  0  0  0
   25.9311  111.4972   46.1207  S    0  0  0  0  0  0
   25.6190  105.8781   45.3133  H    0  0  0  0  0  0
   29.9982  112.0403   42.3912  H    0  0  0  0  0  0
   23.5639  107.1229   45.9451  H    0  0  0  0  0  0
   28.3206  113.6601   42.2966  H    0  0  0  0  0  0
   27.7316  106.9741   45.2139  H    0  0  0  0  0  0
   29.9746  110.0038   43.8621  H    0  0  0  0  0  0
   23.7047  109.5962   46.4089  H    0  0  0  0  0  0
   26.3826  113.5395   44.1388  H    0  0  0  0  0  0
   32.5518  110.0154   51.6060  H    0  0  0  0  0  0
   33.2664  109.4120   50.0996  H    0  0  0  0  0  0
   31.9075  108.5247   50.7713  H    0  0  0  0  0  0
   32.9213  111.0177   48.6754  H    0  0  0  0  0  0
   32.7458  112.0682   50.1371  H    0  0  0  0  0  0
   31.5772  112.2359   48.7806  H    0  0  0  0  0  0
   30.2636  111.1238   47.1575  H    0  0  0  0  0  0
   29.0843  110.9854   48.2981  H    0  0  0  0  0  0
   30.1561  109.0852   46.0801  H    0  0  0  0  0  0
   29.1096  108.3120   47.2864  H    0  0  0  0  0  0
   30.4235  108.7277   49.0389  H    0  0  0  0  0  0
   31.7440  109.4668   48.2133  H    0  0  0  0  0  0
   30.6646  110.8576   50.5574  H    0  0  0  0  0  0
  1  3  2  0  0  0
  1  5  1  0  0  0
  1 21  1  0  0  0
  2  4  2  0  0  0
  2  6  1  0  0  0
  2 22  1  0  0  0
  3  7  1  0  0  0
  3 23  1  0  0  0
  4  8  1  0  0  0
  4 24  1  0  0  0
  5  9  2  0  0  0
  5 25  1  0  0  0
  6 10  2  0  0  0
  6 26  1  0  0  0
  7 11  2  0  0  0
  7 27  1  0  0  0
  8 12  2  0  0  0
  8 28  1  0  0  0
  9 11  1  0  0  0
  9 18  1  0  0  0
 10 12  1  0  0  0
 10 18  1  0  0  0
 11 20  1  0  0  0
 12 20  1  0  0  0
 13 19  1  0  0  0
 13 29  1  0  0  0
 13 30  1  0  0  0
 13 31  1  0  0  0
 14 19  1  0  0  0
 14 32  1  0  0  0
 14 33  1  0  0  0
 14 34  1  0  0  0
 15 16  1  0  0  0
 15 17  1  0  0  0
 15 35  1  0  0  0
 15 36  1  0  0  0
 16 18  1  0  0  0
 16 37  1  0  0  0
 16 38  1  0  0  0
 17 19  1  0  0  0
 17 39  1  0  0  0
 17 40  1  0  0  0
 19 41  1  0  0  0
M  CHG  1  19   1
M  END
> <s_m_entry_id>
160

> <s_m_Source_Path>
/nfs/egallicchio/Dropbox/sims/SAMPL9

> <s_m_Source_File>
PMZ.mol2

> <i_m_Source_File_Index>
1

> <r_epik_Ionization_Penalty>
  0.0034

> <r_epik_State_Penalty>
  0.0024

> <i_epik_Tot_Q>
1

> <i_f3d_flags>
0

> <s_m_job_name>
ligprep_4

$$$$

