TFP1bppS
                    3D
 Schrodinger Suite 2019-4.
 50 53  0  0  1  0            999 V2000
   25.4854  106.9640   46.0817 C   0  0  0  0  0  0
   24.3541  107.7740   46.3118 C   0  0  0  0  0  0
   26.7571  107.5513   45.9201 C   0  0  0  0  0  0
   24.5000  109.1737   46.3832 C   0  0  0  0  0  0
   27.1623  112.7477   44.0458 C   0  0  0  0  0  0
   28.1786  112.8683   43.0791 C   0  0  0  0  0  0
   29.2940  110.9010   44.0158 C   0  0  0  0  0  0
   26.9396  108.9553   46.0177 C   0  0  0  0  0  0
   28.2559  110.7344   44.9523 C   0  0  0  0  0  0
   25.7764  109.7499   46.2171 C   0  0  0  0  0  0
   27.2050  111.6834   44.9805 C   0  0  0  0  0  0
   29.2530  111.9549   43.0696 C   0  0  0  0  0  0
   31.1837  110.9024   51.1747 C   0  0  0  0  0  0
   28.9765  111.6335   50.4266 C   0  0  0  0  0  0
   31.2635  112.1690   52.0556 C   0  0  0  0  0  0
   29.0952  112.8747   51.3301 C   0  0  0  0  0  0
   29.4664  110.3485   47.7886 C   0  0  0  0  0  0
   29.3560  109.3390   46.6339 C   0  0  0  0  0  0
   30.3147  110.0087   49.0262 C   0  0  0  0  0  0
   28.1918  109.5668   45.7522 N   0  0  0  0  0  0
   30.3254  111.1532   49.9914 N   0  3  0  0  0  0
   29.9279  112.5757   52.4900 N   0  0  0  0  0  0
   30.4273  110.8923   41.3596 F   0  0  0  0  0  0
   31.5087  112.2587   42.6490 F   0  0  0  0  0  0
   30.1467  113.0328   41.1459 F   0  0  0  0  0  0
   25.8901  111.5124   46.1425 S   0  0  0  0  0  0
   30.3530  112.0468   42.0232 C   0  0  0  0  0  0
   25.3514  105.8967   45.9782 H   0  0  0  0  0  0
   23.3702  107.3267   46.3895 H   0  0  0  0  0  0
   27.5779  106.9125   45.6412 H   0  0  0  0  0  0
   23.6255  109.8086   46.4874 H   0  0  0  0  0  0
   26.3215  113.4312   44.0243 H   0  0  0  0  0  0
   28.1313  113.6612   42.3399 H   0  0  0  0  0  0
   30.1036  110.1934   43.9488 H   0  0  0  0  0  0
   32.1906  110.6270   50.8518 H   0  0  0  0  0  0
   30.7904  110.0639   51.7522 H   0  0  0  0  0  0
   28.4274  110.8407   50.9358 H   0  0  0  0  0  0
   28.3601  111.9546   49.5855 H   0  0  0  0  0  0
   31.8773  111.9727   52.9402 H   0  0  0  0  0  0
   31.7404  112.9949   51.5180 H   0  0  0  0  0  0
   29.5147  113.7211   50.7779 H   0  0  0  0  0  0
   28.1017  113.1883   51.6670 H   0  0  0  0  0  0
   29.7795  111.3136   47.3852 H   0  0  0  0  0  0
   28.4524  110.4272   48.1614 H   0  0  0  0  0  0
   30.2633  109.3471   46.0288 H   0  0  0  0  0  0
   29.3002  108.3459   47.0671 H   0  0  0  0  0  0
   29.8767  109.1318   49.4974 H   0  0  0  0  0  0
   31.3354  109.7164   48.7537 H   0  0  0  0  0  0
   29.4922  111.9339   53.1468 H   0  0  0  0  0  0
   30.7454  111.9439   49.5251 H   0  0  0  0  0  0
  1  2  2  0  0  0
  1  3  1  0  0  0
  1 28  1  0  0  0
  2  4  1  0  0  0
  2 29  1  0  0  0
  3  8  2  0  0  0
  3 30  1  0  0  0
  4 10  2  0  0  0
  4 31  1  0  0  0
  5  6  2  0  0  0
  5 11  1  0  0  0
  5 32  1  0  0  0
  6 12  1  0  0  0
  6 33  1  0  0  0
  7  9  1  0  0  0
  7 12  2  0  0  0
  7 34  1  0  0  0
  8 10  1  0  0  0
  8 20  1  0  0  0
  9 11  2  0  0  0
  9 20  1  0  0  0
 10 26  1  0  0  0
 11 26  1  0  0  0
 12 27  1  0  0  0
 13 15  1  0  0  0
 13 21  1  0  0  0
 13 35  1  0  0  0
 13 36  1  0  0  0
 14 16  1  0  0  0
 14 21  1  0  0  0
 14 37  1  0  0  0
 14 38  1  0  0  0
 15 22  1  0  0  0
 15 39  1  0  0  0
 15 40  1  0  0  0
 16 22  1  0  0  0
 16 41  1  0  0  0
 16 42  1  0  0  0
 17 18  1  0  0  0
 17 19  1  0  0  0
 17 43  1  0  0  0
 17 44  1  0  0  0
 18 20  1  0  0  0
 18 45  1  0  0  0
 18 46  1  0  0  0
 19 21  1  0  0  0
 19 47  1  0  0  0
 19 48  1  0  0  0
 21 50  1  0  0  0
 22 49  1  0  0  0
 23 27  1  0  0  0
 24 27  1  0  0  0
 25 27  1  0  0  0
M  CHG  1  21   1
M  END
> <s_m_entry_id>
636

> <s_m_Source_Path>
/home/emilio/Dropbox/SAMPL9-eglab/mCD/ligsdfs

> <s_m_Source_File>
TFP1bppS.sdf

> <i_m_Source_File_Index>
1

> <r_epik_Ionization_Penalty>
  0.1004

> <r_epik_State_Penalty>
  1.6660

> <i_epik_Tot_Q>
1

> <s_m_job_name>
ligprep_4

> <i_f3d_flags>
0

$$$$
