@<TRIPOS>MOLECULE
LIG
41 43
SMALL
USER_CHARGES
@<TRIPOS>ATOM
      1 C1           16.325      0.160      1.427 AA            1 LIG       -0.148984
      2 C2           16.183      1.509      1.729 AB            1 LIG       -0.148984
      3 C3           15.301     -0.519      0.769 AD            1 LIG       -0.216162
      4 C4           15.025      2.179      1.354 AE            1 LIG       -0.191448
      5 C5           10.086      1.605      0.607 AF            1 LIG       -0.191448
      6 C6            9.050      0.679      0.655 AH            1 LIG       -0.201273
      7 C7           10.605     -1.065      0.061 AI            1 LIG       -0.282378
      8 C8           14.104      0.125      0.394 AJ            1 LIG        0.090825
      9 C9           11.683     -0.155      0.026 AK            1 LIG        0.090825
     10 C10          14.002      1.504      0.684 AN            1 LIG        0.113170
     11 C11          11.384      1.201      0.286 AO            1 LIG        0.113170
     12 C12           9.309     -0.657      0.373 AP            1 LIG        0.139586
     13 C13          11.610     -5.364      1.884 AQ            1 LIG       -0.327670
     14 C14          12.749     -6.929      0.246 AV            1 LIG       -0.327670
     15 C15          13.146     -3.048      0.396 AW            1 LIG       -0.018552
     16 C16          13.241     -1.946     -0.691 AX            1 LIG        0.030051
     17 C17          12.805     -4.424     -0.203 AY            1 LIG        0.155353
     18 N1           13.020     -0.571     -0.196 AZ            1 LIG       -0.186524
     19 N2           12.774     -5.524      0.883 BB            1 LIG        0.134459
     20 S1           12.620      2.436      0.139 BC            1 LIG       -0.184949
     21 CL1           8.028     -1.814      0.417 BD            1 LIG       -0.163674
     22 H1           17.228     -0.363      1.706 BF            1 LIG        0.167367
     23 H2           16.975      2.038      2.240 BG            1 LIG        0.167367
     24 H3           15.475     -1.561      0.566 BH            1 LIG        0.144463
     25 H4           14.933      3.235      1.567 BJ            1 LIG        0.182657
     26 H5            9.873      2.646      0.803 BK            1 LIG        0.182657
     27 H6            8.049      1.002      0.898 BL            1 LIG        0.185066
     28 H7           10.746     -2.114     -0.140 BM            1 LIG        0.159917
     29 H8           10.679     -5.357      1.315 BN            1 LIG        0.163775
     30 H9           11.758     -4.433      2.429 BO            1 LIG        0.163775
     31 H10          11.651     -6.210      2.571 BP            1 LIG        0.163775
     32 H11          11.829     -7.016     -0.333 BQ            1 LIG        0.163775
     33 H12          12.785     -7.656      1.058 BS            1 LIG        0.163775
     34 H13          13.633     -7.016     -0.387 BT            1 LIG        0.163775
     35 H14          14.121     -3.167      0.866 BU            1 LIG        0.042423
     36 H15          12.491     -2.749      1.213 BV            1 LIG        0.042423
     37 H16          14.209     -1.994     -1.190 BW            1 LIG        0.092460
     38 H17          12.550     -2.150     -1.512 BX            1 LIG        0.092460
     39 H18          11.830     -4.448     -0.693 BY            1 LIG        0.021392
     40 H19          13.574     -4.732     -0.913 BZ            1 LIG        0.021392
     41 H20          13.637     -5.456      1.405 CB            1 LIG        0.237587
@<TRIPOS>BOND
        1  1  2  2
        2  1  3  1
        3  1  22  1
        4  2  4  1
        5  2  23  1
        6  3  8  2
        7  3  24  1
        8  4  10  2
        9  4  25  1
        10  5  6  1
        11  5  11  2
        12  5  26  1
        13  6  12  2
        14  6  27  1
        15  7  9  2
        16  7  12  1
        17  7  28  1
        18  8  10  1
        19  8  18  1
        20  9  11  1
        21  9  18  1
        22  10  20  1
        23  11  20  1
        24  12  21  1
        25  13  19  1
        26  13  29  1
        27  13  30  1
        28  13  31  1
        29  14  19  1
        30  14  32  1
        31  14  33  1
        32  14  34  1
        33  15  16  1
        34  15  17  1
        35  15  35  1
        36  15  36  1
        37  16  18  1
        38  16  37  1
        39  16  38  1
        40  17  19  1
        41  17  39  1
        42  17  40  1
        43  19  41  1
@<TRIPOS>SUBSTRUCTURE
       1 LIG             1 RESIDUE    0 **** ROOT      0
