@<TRIPOS>MOLECULE
LIG
41 43
SMALL
USER_CHARGES
@<TRIPOS>ATOM
      1 C1         24.2073  112.6012   46.9396 AA             0 LIG     -0.148984
      2 C2         23.8030  112.0351   48.1626 AB             0 LIG     -0.148984
      3 C3         25.5734  112.6502   46.6019 AD             0 LIG     -0.216162
      4 C4         24.7690  111.5252   49.0493 AE             0 LIG     -0.191448
      5 C5         29.7277  112.0357   50.4387 AF             0 LIG     -0.191448
      6 C6         30.9226  112.7758   50.1142 AH             0 LIG     -0.201273
      7 C7         30.0955  113.1383   47.8499 AI             0 LIG     -0.282378
      8 C8         26.5564  112.1357   47.4804 AJ             0 LIG     0.090825
      9 C9         28.9208  112.4000   48.1389 AK             0 LIG     0.090825
     10 C10        26.1369  111.5879   48.7192 AN             0 LIG     0.113170
     11 C11        28.7549  111.8756   49.4409 AO             0 LIG     0.113170
     12 C12        31.0886  113.3218   48.8244 AP             0 LIG     0.139586
     13 C13        25.7666  109.4036   43.7140 AQ             0 LIG     -0.327670
     14 C14        25.7285  108.4163   45.9626 AV             0 LIG     -0.327670
     15 C15        28.6688  109.8880   46.0757 AW             0 LIG     -0.018552
     16 C16        28.2523  111.3824   46.0199 AX             0 LIG     0.030051
     17 C17        27.8785  109.1184   45.0006 AY             0 LIG     0.155353
     18 N1         27.9289  112.1920   47.1576 AZ             0 LIG     -0.186524
     19 N2         26.4136  109.3638   45.0485 BB             0 LIG     0.134459
     20 S1         27.3099  110.9639   49.8838 BC             0 LIG     -0.184949
     21 CL1        32.5217  114.1965   48.4357 BD             0 LIG     -0.163674
     22 H1         23.4675  113.0054   46.2622 BF             0 LIG     0.167367
     23 H2         22.7557  111.9994   48.4265 BG             0 LIG     0.167367
     24 H3         25.8502  113.1114   45.6669 BH             0 LIG     0.144463
     25 H4         24.4627  111.0952   49.9924 BJ             0 LIG     0.182657
     26 H5         29.6176  111.6383   51.4097 BK             0 LIG     0.182657
     27 H6         31.6863  112.9136   50.8667 BL             0 LIG     0.185066
     28 H7         30.2445  113.5759   46.8758 BM             0 LIG     0.159917
     29 H8         25.9009  108.4640   43.1744 BN             0 LIG     0.163775
     30 H9         26.1647  110.2097   43.0959 BO             0 LIG     0.163775
     31 H10        24.6949  109.5864   43.8103 BP             0 LIG     0.163775
     32 H11        25.7919  107.3911   45.5921 BQ             0 LIG     0.163775
     33 H12        24.6731  108.6723   46.0685 BS             0 LIG     0.163775
     34 H13        26.1703  108.4406   46.9603 BT             0 LIG     0.163775
     35 H14        29.7424  109.8027   45.9200 BU             0 LIG     0.042423
     36 H15        28.4790  109.3981   47.0239 BV             0 LIG     0.042423
     37 H16        28.7760  111.9153   45.2509 BW             0 LIG     0.092460
     38 H17        27.2297  111.4756   45.9297 BX             0 LIG     0.092460
     39 H18        28.2662  109.3642   44.0082 BY             0 LIG     0.021392
     40 H19        28.0585  108.0491   45.1347 BZ             0 LIG     0.021392
     41 H20        26.2959  110.2818   45.4569 CB             0 LIG     0.237587
@<TRIPOS>BOND
        1  1  2  2
        2  1  3  1
        3  1  22  1
        4  2  4  1
        5  2  23  1
        6  3  8  2
        7  3  24  1
        8  4  10  2
        9  4  25  1
        10  5  6  1
        11  5  11  2
        12  5  26  1
        13  6  12  2
        14  6  27  1
        15  7  9  2
        16  7  12  1
        17  7  28  1
        18  8  10  1
        19  8  18  1
        20  9  11  1
        21  9  18  1
        22  10  20  1
        23  11  20  1
        24  12  21  1
        25  13  19  1
        26  13  29  1
        27  13  30  1
        28  13  31  1
        29  14  19  1
        30  14  32  1
        31  14  33  1
        32  14  34  1
        33  15  16  1
        34  15  17  1
        35  15  35  1
        36  15  36  1
        37  16  18  1
        38  16  37  1
        39  16  38  1
        40  17  19  1
        41  17  39  1
        42  17  40  1
        43  19  41  1
@<TRIPOS>SUBSTRUCTURE
       1 LIG             1 RESIDUE    0 **** ROOT      0

