@<TRIPOS>MOLECULE
LIG
41 43
SMALL
USER_CHARGES
@<TRIPOS>ATOM
      1 C1         24.2419  112.8650   47.0575 AA             0 LIG     -0.150100
      2 C2         31.0926  113.3229   48.8267 AB             0 LIG     -0.150100
      3 C3         23.8372  112.3405   48.2972 AD             0 LIG     -0.150100
      4 C4         30.9163  112.7918   50.1177 AE             0 LIG     -0.150100
      5 C5         25.5923  112.7914   46.6614 AF             0 LIG     -0.220762
      6 C6         30.1163  113.1067   47.8334 AH             0 LIG     -0.220762
      7 C7         24.7858  111.7446   49.1474 AI             0 LIG     -0.190531
      8 C8         29.7603  112.0481   50.4175 AJ             0 LIG     -0.190531
      9 C9         26.5599  112.2100   47.5159 AK             0 LIG     0.084657
     10 C10        28.9467  112.3615   48.1240 AN             0 LIG     0.084657
     11 C11        26.1409  111.6851   48.7630 AO             0 LIG     0.115853
     12 C12        28.7750  111.8449   49.4328 AP             0 LIG     0.115853
     13 C13        29.8616  109.5844   46.7360 AQ             0 LIG     -0.353988
     14 C14        27.3844  110.1101   43.8693 AV             0 LIG     -0.185375
     15 C15        28.2729  107.9167   44.4695 AW             0 LIG     -0.185375
     16 C16        28.2325  111.3829   46.0412 AX             0 LIG     0.002465
     17 C17        28.4788  109.8615   46.1036 AY             1 LIG     0.085935
     18 N1         27.9266  112.1873   47.1681 AZ             0 LIG     -0.190232
     19 N2         28.3966  109.3817   44.6792 BB             0 LIG     0.109280
     20 S1         27.3080  110.9656   49.8755 BC             0 LIG     -0.188456
     21 H1         23.5132  113.3449   46.4204 BD             0 LIG     0.166423
     22 H2         31.9691  113.9173   48.6086 BF             0 LIG     0.166423
     23 H3         22.8017  112.4077   48.6057 BG             0 LIG     0.166423
     24 H4         31.6597  112.9663   50.8850 BH             0 LIG     0.166423
     25 H5         25.8739  113.2426   45.7241 BJ             0 LIG     0.128375
     26 H6         30.2604  113.5683   46.8687 BK             0 LIG     0.128375
     27 H7         24.4782  111.3536   50.1054 BL             0 LIG     0.178440
     28 H8         29.6104  111.6570   51.4122 BM             0 LIG     0.178440
     29 H9         29.9060  109.9776   47.7513 BN             0 LIG     0.122803
     30 H10        30.6733  110.0515   46.1739 BO             0 LIG     0.122803
     31 H11        30.0711  108.5178   46.8213 BP             0 LIG     0.122803
     32 H12        26.3707  109.9021   44.2120 BQ             0 LIG     0.123915
     33 H13        27.4420  109.8214   42.8179 BS             0 LIG     0.123915
     34 H14        27.5239  111.1885   43.8890 BT             0 LIG     0.123915
     35 H15        27.3830  107.5084   44.9510 BU             0 LIG     0.123915
     36 H16        29.1454  107.3752   44.8362 BV             0 LIG     0.123915
     37 H17        28.2071  107.6790   43.4049 BW             0 LIG     0.123915
     38 H18        29.0046  111.8729   45.5317 BX             0 LIG     0.090289
     39 H19        27.2997  111.6098   45.6437 BY             0 LIG     0.090289
     40 H20        27.7086  109.3683   46.6988 BZ             0 LIG     0.141962
     41 H21        29.2916  109.6180   44.2678 CB             0 LIG     0.213953
@<TRIPOS>BOND
        1  1  3  2
        2  1  5  1
        3  1  21  1
        4  2  4  2
        5  2  6  1
        6  2  22  1
        7  3  7  1
        8  3  23  1
        9  4  8  1
        10  4  24  1
        11  5  9  2
        12  5  25  1
        13  6  10  2
        14  6  26  1
        15  7  11  2
        16  7  27  1
        17  8  12  2
        18  8  28  1
        19  9  11  1
        20  9  18  1
        21  10  12  1
        22  10  18  1
        23  11  20  1
        24  12  20  1
        25  13  17  1
        26  13  29  1
        27  13  30  1
        28  13  31  1
        29  14  19  1
        30  14  32  1
        31  14  33  1
        32  14  34  1
        33  15  19  1
        34  15  35  1
        35  15  36  1
        36  15  37  1
        37  16  17  1
        38  16  18  1
        39  16  38  1
        40  16  39  1
        41  17  19  1
        42  17  40  1
        43  19  41  1
@<TRIPOS>SUBSTRUCTURE
       1 LIG             1 RESIDUE    0 **** ROOT      0

