PMT1aspS
                    3D
 Structure written by MMmdl.
 41 43  0  0  1  0            999 V2000
   24.2419  112.8650   47.0575 C   0  0  0  0  0  0
   31.0926  113.3229   48.8267 C   0  0  0  0  0  0
   23.8372  112.3405   48.2972 C   0  0  0  0  0  0
   30.9163  112.7918   50.1177 C   0  0  0  0  0  0
   25.5923  112.7914   46.6614 C   0  0  0  0  0  0
   30.1163  113.1067   47.8334 C   0  0  0  0  0  0
   24.7858  111.7446   49.1474 C   0  0  0  0  0  0
   29.7603  112.0481   50.4175 C   0  0  0  0  0  0
   26.5599  112.2100   47.5159 C   0  0  0  0  0  0
   28.9467  112.3615   48.1240 C   0  0  0  0  0  0
   26.1409  111.6851   48.7630 C   0  0  0  0  0  0
   28.7750  111.8449   49.4328 C   0  0  0  0  0  0
   29.8616  109.5844   46.7360 C   0  0  0  0  0  0
   27.3844  110.1101   43.8693 C   0  0  0  0  0  0
   28.2729  107.9167   44.4695 C   0  0  0  0  0  0
   28.2325  111.3829   46.0412 C   0  0  0  0  0  0
   28.4788  109.8615   46.1036 C   0  0  1  0  0  0
   27.9266  112.1873   47.1681 N   0  0  0  0  0  0
   28.3966  109.3817   44.6792 N   0  3  0  0  0  0
   27.3080  110.9656   49.8755 S   0  0  0  0  0  0
   23.5132  113.3449   46.4204 H   0  0  0  0  0  0
   31.9691  113.9173   48.6086 H   0  0  0  0  0  0
   22.8017  112.4077   48.6057 H   0  0  0  0  0  0
   31.6597  112.9663   50.8850 H   0  0  0  0  0  0
   25.8739  113.2426   45.7241 H   0  0  0  0  0  0
   30.2604  113.5683   46.8687 H   0  0  0  0  0  0
   24.4782  111.3536   50.1054 H   0  0  0  0  0  0
   29.6104  111.6570   51.4122 H   0  0  0  0  0  0
   29.9060  109.9776   47.7513 H   0  0  0  0  0  0
   30.6733  110.0515   46.1739 H   0  0  0  0  0  0
   30.0711  108.5178   46.8213 H   0  0  0  0  0  0
   26.3707  109.9021   44.2120 H   0  0  0  0  0  0
   27.4420  109.8214   42.8179 H   0  0  0  0  0  0
   27.5239  111.1885   43.8890 H   0  0  0  0  0  0
   27.3830  107.5084   44.9510 H   0  0  0  0  0  0
   29.1454  107.3752   44.8362 H   0  0  0  0  0  0
   28.2071  107.6790   43.4049 H   0  0  0  0  0  0
   29.0046  111.8729   45.5317 H   0  0  0  0  0  0
   27.2997  111.6098   45.6437 H   0  0  0  0  0  0
   27.7086  109.3683   46.6988 H   0  0  0  0  0  0
   29.2916  109.6180   44.2678 H   0  0  0  0  0  0
  1  3  2  0  0  0
  1  5  1  0  0  0
  1 21  1  0  0  0
  2  4  2  0  0  0
  2  6  1  0  0  0
  2 22  1  0  0  0
  3  7  1  0  0  0
  3 23  1  0  0  0
  4  8  1  0  0  0
  4 24  1  0  0  0
  5  9  2  0  0  0
  5 25  1  0  0  0
  6 10  2  0  0  0
  6 26  1  0  0  0
  7 11  2  0  0  0
  7 27  1  0  0  0
  8 12  2  0  0  0
  8 28  1  0  0  0
  9 11  1  0  0  0
  9 18  1  0  0  0
 10 12  1  0  0  0
 10 18  1  0  0  0
 11 20  1  0  0  0
 12 20  1  0  0  0
 13 17  1  0  0  0
 13 29  1  0  0  0
 13 30  1  0  0  0
 13 31  1  0  0  0
 14 19  1  0  0  0
 14 32  1  0  0  0
 14 33  1  0  0  0
 14 34  1  0  0  0
 15 19  1  0  0  0
 15 35  1  0  0  0
 15 36  1  0  0  0
 15 37  1  0  0  0
 16 17  1  0  0  0
 16 18  1  0  0  0
 16 38  1  0  0  0
 16 39  1  0  0  0
 17 19  1  0  0  0
 17 40  1  0  0  0
 19 41  1  0  0  0
M  CHG  1  19   1
M  END
> <s_m_entry_id>
427

> <s_m_entry_name>
PMT1aspS.1

> <s_m_Source_Path>
/home/emilio/Dropbox/SAMPL9-eglab/mCD/ligsdfs

> <s_m_Source_File>
PMT1aspS.sdf

> <i_m_Source_File_Index>
1

> <i_lp_mmshare_version>
47013

> <s_epik_input>
W2NIXTFbY0hdW2NIXVtjSF1jKGMxMilTYzNjKFtjSF1bY0hdW2NIXVtjSF0zKU4yW0NIMl1bQ0BIXShbQ0gzXSlOKFtDSDNdKVtDSDNd

> <s_epik_cmdline>
J2VwaWtfcHl0aG9uJywgJy1waHQnLCAnNC4wJywgJy1waCcsICc3LjQnLCAnLXRuJywgJzgnLCAnLW1hJywgJzIwMCcsICctaW1hZScsICc8aW5maWxlLm1hZT4nLCAnLW9tYWUnLCAnPG91dGZpbGUubWFlPic=

> <r_epik_Ionization_Penalty>
  0.0045

> <r_epik_Ionization_Penalty_Charging>
  0.0045

> <r_epik_Ionization_Penalty_Neutral>
  0.0000

> <r_epik_State_Penalty>
  0.0032

> <r_epik_Charging_Adjusted_Penalty>
0.00770832931686598

> <i_epik_Tot_Q>
1

> <i_epik_Tot_abs_Q>
1

> <s_lp_Force_Field>
OPLS3e

> <r_lp_Energy>
58.361695

> <b_lp_Chiralities_Consistent>
1

> <s_lp_Variant>
PMT-1

> <s_m_job_name>
ligprep_4

> <chiral flag>
1

> <version>
0

> <i_f3d_flags>
0

> <s_m_subgroup_title>
mCDq->spS

> <s_m_subgroupid>
mCDq->spS1_copy1

> <b_m_subgroup_collapsed>
0

$$$$
