@<TRIPOS>MOLECULE
LIG
41 43
SMALL
USER_CHARGES
@<TRIPOS>ATOM
      1 C1         24.3950  113.2967   47.2015 PA             0 LIG     -0.151978
      2 C2         31.0541  113.3092   48.8070 PB             0 LIG     -0.151978
      3 C3         23.9637  112.6222   48.3616 PD             0 LIG     -0.151978
      4 C4         30.9847  112.5867   49.9635 PE             0 LIG     -0.151978
      5 C5         25.7728  113.1495   46.8503 PF             0 LIG     -0.221382
      6 C6         30.0733  113.1862   47.8862 PH             0 LIG     -0.221382
      7 C7         24.8813  111.8834   49.1466 PI             0 LIG     -0.192007
      8 C8         29.8677  111.8079   50.2650 PJ             0 LIG     -0.192007
      9 C9         26.6725  112.4203   47.6100 PK             0 LIG     0.086899
     10 C10        28.9233  112.3930   48.1605 PN             0 LIG     0.086899
     11 C11        26.1851  111.8044   48.8285 PO             0 LIG     0.115779
     12 C12        28.8549  111.6626   49.3448 PP             0 LIG     0.115779
     13 C13        26.9475  108.4271   43.3407 PQ             0 LIG     -0.319173
     14 C14        26.1618  107.6299   45.5277 PV             0 LIG     -0.319173
     15 C15        28.4032  109.8083   46.4916 PW             0 LIG     -0.018118
     16 C16        28.2300  111.3586   46.0640 PX             0 LIG     0.036275
     17 C17        28.3160  108.7689   45.2882 PY             0 LIG     0.012268
     18 N1         27.9660  112.2043   47.1799 PZ             0 LIG     -0.191498
     19 N2         26.9054  108.7023   44.7938 QB             0 LIG     0.153200
     20 S1         27.3073  110.9634   49.8810 QC             0 LIG     -0.201542
     21 H1         23.6847  113.9225   46.6320 QD             0 LIG     0.160898
     22 H2         31.8866  113.9989   48.6957 QF             0 LIG     0.160898
     23 H3         22.9644  112.7271   48.5995 QG             0 LIG     0.160898
     24 H4         31.7124  112.6683   50.7651 QH             0 LIG     0.160898
     25 H5         26.2115  113.5830   45.9451 QJ             0 LIG     0.134456
     26 H6         30.1012  113.7463   46.9677 QK             0 LIG     0.134456
     27 H7         24.4894  111.3619   50.0127 QL             0 LIG     0.174337
     28 H8         29.7118  111.4880   51.2987 QM             0 LIG     0.174337
     29 H9         27.6303  109.0459   42.8217 QN             0 LIG     0.158404
     30 H10        25.9655  108.5301   42.8843 QO             0 LIG     0.158404
     31 H11        27.1820  107.3844   43.2176 QP             0 LIG     0.158404
     32 H12        26.5152  106.6397   45.1583 QQ             0 LIG     0.158404
     33 H13        25.0821  107.7022   45.2795 QS             0 LIG     0.158404
     34 H14        26.2800  107.7665   46.6249 QT             0 LIG     0.158404
     35 H15        29.3683  109.6956   47.0470 QU             0 LIG     0.041463
     36 H16        27.6142  109.5912   47.2400 QV             0 LIG     0.041463
     37 H17        29.0957  111.7647   45.4984 QW             0 LIG     0.085391
     38 H18        27.3354  111.4411   45.3996 QX             0 LIG     0.085391
     39 H19        28.8951  109.2310   44.4644 QY             0 LIG     0.073022
     40 H20        28.5837  107.7394   45.6174 QZ             0 LIG     0.073022
     41 H21        26.4588  109.6390   44.8577 RB             0 LIG     0.265740
@<TRIPOS>BOND
        1  1  3  2
        2  1  5  1
        3  1  21  1
        4  2  4  2
        5  2  6  1
        6  2  22  1
        7  3  7  1
        8  3  23  1
        9  4  8  1
        10  4  24  1
        11  5  9  2
        12  5  25  1
        13  6  10  2
        14  6  26  1
        15  7  11  2
        16  7  27  1
        17  8  12  2
        18  8  28  1
        19  9  11  1
        20  9  18  1
        21  10  12  1
        22  10  18  1
        23  11  20  1
        24  12  20  1
        25  13  19  1
        26  13  29  1
        27  13  30  1
        28  13  31  1
        29  14  19  1
        30  14  32  1
        31  14  33  1
        32  14  34  1
        33  15  16  1
        34  15  17  1
        35  15  35  1
        36  15  36  1
        37  16  18  1
        38  16  37  1
        39  16  38  1
        40  17  19  1
        41  17  39  1
        42  17  40  1
        43  19  41  1
@<TRIPOS>SUBSTRUCTURE
       1 LIG             1 RESIDUE    0 **** ROOT      0

