@<TRIPOS>MOLECULE
LIG
52 55
SMALL
USER_CHARGES
@<TRIPOS>ATOM
      1 C1         24.2863  113.0104   47.0998 AA             0 LIG     -0.151259
      2 C2         23.8578  112.4236   48.3077 AB             0 LIG     -0.151259
      3 C3         25.6410  112.9425   46.7207 AD             0 LIG     -0.219304
      4 C4         24.7910  111.7795   49.1445 AE             0 LIG     -0.194592
      5 C5         29.7653  112.0396   50.4195 AF             0 LIG     -0.194592
      6 C6         30.9145  112.7934   50.1159 AH             0 LIG     -0.194592
      7 C7         30.1308  113.0687   47.8189 AI             0 LIG     -0.277127
      8 C8         26.5781  112.2801   47.5442 AJ             0 LIG     0.085655
      9 C9         28.9581  112.3419   48.1247 AK             0 LIG     0.085655
     10 C10        26.1471  111.7243   48.7735 AN             0 LIG     0.112307
     11 C11        28.7810  111.8349   49.4353 AO             0 LIG     0.112307
     12 C12        31.0879  113.3221   48.8223 AP             0 LIG     0.162844
     13 C13        27.8022  110.0766   41.8266 AQ             0 LIG     -0.032521
     14 C14        26.4071  109.4498   41.7625 AV             0 LIG     -0.034488
     15 C15        28.0787  110.6099   43.2393 AW             0 LIG     -0.055761
     16 C16        26.2591  108.3626   42.8351 AX             0 LIG     -0.006430
     17 C17        27.8918  109.5185   44.3228 AY             1 LIG     0.133288
     18 C18        26.2100  107.8840   45.2384 AZ             0 LIG     -0.176010
     19 C19        32.6437  115.4750   49.8549 BB             0 LIG     -0.159669
     20 C20        28.1131  110.0944   45.7447 BC             0 LIG     -0.036260
     21 C21        28.3208  111.6286   45.8665 BD             0 LIG     0.036576
     22 N1         27.9332  112.1895   47.1720 BF             0 LIG     -0.187743
     23 N2         26.5273  108.8995   44.1975 BG             2 LIG     -0.192054
     24 S1         27.3063  110.9653   49.8736 BH             0 LIG     -0.197945
     25 S2         32.4822  114.3338   48.4502 BJ             0 LIG     -0.259338
     26 H1         23.5730  113.5194   46.4675 BK             0 LIG     0.162335
     27 H2         22.8201  112.4788   48.6019 BL             0 LIG     0.162335
     28 H3         25.9690  113.4181   45.8073 BM             0 LIG     0.137375
     29 H4         24.4683  111.3385   50.0764 BN             0 LIG     0.176356
     30 H5         29.6233  111.6441   51.4153 BO             0 LIG     0.176356
     31 H6         31.6535  112.9686   50.8834 BP             0 LIG     0.176356
     32 H7         30.2704  113.4941   46.8374 BQ             0 LIG     0.141006
     33 H8         28.5550  109.3350   41.5551 BS             0 LIG     0.046484
     34 H9         27.8888  110.8812   41.0944 BT             0 LIG     0.046484
     35 H10        25.6434  110.2186   41.8946 BU             0 LIG     0.051372
     36 H11        26.2369  109.0232   40.7731 BV             0 LIG     0.051372
     37 H12        29.0965  110.9988   43.2629 BW             0 LIG     0.048966
     38 H13        27.4267  111.4611   43.4415 BX             0 LIG     0.048966
     39 H14        25.2472  107.9557   42.7868 BY             0 LIG     0.095743
     40 H15        26.9357  107.5333   42.6266 BZ             0 LIG     0.095743
     41 H16        28.6353  108.7354   44.1464 CB             0 LIG     0.086415
     42 H17        26.9764  107.1076   45.2819 CI             0 LIG     0.129026
     43 H18        25.2545  107.3978   45.0404 CJ             0 LIG     0.129026
     44 H19        26.1183  108.3328   46.2281 CK             0 LIG     0.129026
     45 H20        33.3837  116.2458   49.6341 CM             0 LIG     0.110256
     46 H21        32.9619  114.9458   50.7534 CN             0 LIG     0.110256
     47 H22        31.6908  115.9658   50.0596 CT             0 LIG     0.110256
     48 H23        27.2635  109.7971   46.3601 CW             0 LIG     0.037623
     49 H24        29.0031  109.6282   46.1685 DA             0 LIG     0.037623
     50 H25        29.3811  111.8389   45.7052 DB             0 LIG     0.084613
     51 H26        27.7825  112.1616   45.0817 DC             0 LIG     0.084613
     52 H27        25.8675  109.6525   44.3301 DD             0 LIG     0.326325
@<TRIPOS>BOND
        1  1  2  2
        2  1  3  1
        3  1  26  1
        4  2  4  1
        5  2  27  1
        6  3  8  2
        7  3  28  1
        8  4  10  2
        9  4  29  1
        10  5  6  1
        11  5  11  2
        12  5  30  1
        13  6  12  2
        14  6  31  1
        15  7  9  2
        16  7  12  1
        17  7  32  1
        18  8  10  1
        19  8  22  1
        20  9  11  1
        21  9  22  1
        22  10  24  1
        23  11  24  1
        24  12  25  1
        25  13  14  1
        26  13  15  1
        27  13  33  1
        28  13  34  1
        29  14  16  1
        30  14  35  1
        31  14  36  1
        32  15  17  1
        33  15  37  1
        34  15  38  1
        35  16  23  1
        36  16  39  1
        37  16  40  1
        38  17  20  1
        39  17  23  1
        40  17  41  1
        41  18  23  1
        42  18  42  1
        43  18  43  1
        44  18  44  1
        45  19  25  1
        46  19  45  1
        47  19  46  1
        48  19  47  1
        49  20  21  1
        50  20  48  1
        51  20  49  1
        52  21  22  1
        53  21  50  1
        54  21  51  1
        55  23  52  1
@<TRIPOS>SUBSTRUCTURE
       1 LIG             1 RESIDUE    0 **** ROOT      0

