@<TRIPOS>MOLECULE
LIG
52 55
SMALL
USER_CHARGES
@<TRIPOS>ATOM
      1 C1         24.2465  112.7224   46.9583 AA             0 LIG     -0.151741
      2 C2         23.8322  112.1919   48.1958 AB             0 LIG     -0.151741
      3 C3         25.6093  112.6965   46.6022 AD             0 LIG     -0.220252
      4 C4         24.7791  111.6338   49.0745 AE             0 LIG     -0.194616
      5 C5         29.7603  112.0479   50.4220 AF             0 LIG     -0.194616
      6 C6         30.9206  112.7817   50.1139 AH             0 LIG     -0.194616
      7 C7         30.1006  113.1095   47.8356 AI             0 LIG     -0.276550
      8 C8         26.5694  112.1582   47.4853 AJ             0 LIG     0.084603
      9 C9         28.9283  112.3862   48.1405 AK             0 LIG     0.084603
     10 C10        26.1431  111.6302   48.7301 AN             0 LIG     0.112404
     11 C11        28.7611  111.8666   49.4476 AO             0 LIG     0.112404
     12 C12        31.0837  113.3196   48.8232 AP             0 LIG     0.163041
     13 C13        28.4359  110.8974   43.0144 AQ             0 LIG     -0.029878
     14 C14        26.9159  110.9598   42.8030 AV             0 LIG     -0.034345
     15 C15        28.8545  109.5372   43.5990 AW             0 LIG     -0.054555
     16 C16        26.1582  110.5821   44.0869 AX             0 LIG     0.011138
     17 C17        28.0586  109.1676   44.8730 AY             1 LIG     0.149935
     18 C18        25.7117  108.6904   45.6303 AZ             0 LIG     -0.244054
     19 C19        33.0360  115.1121   49.9459 BB             0 LIG     -0.160589
     20 C20        28.4755  109.9963   46.1177 BC             0 LIG     -0.033239
     21 C21        28.3514  111.5235   45.9273 BD             0 LIG     0.039575
     22 N1         27.9357  112.1934   47.1640 BF             0 LIG     -0.187004
     23 N2         26.5945  109.2446   44.5725 BG             1 LIG     -0.070769
     24 S1         27.3080  110.9639   49.8807 BH             0 LIG     -0.197900
     25 S2         32.5181  114.2631   48.4268 BJ             0 LIG     -0.258446
     26 H1         23.5209  113.1602   46.2886 BK             0 LIG     0.161610
     27 H2         22.7899  112.2234   48.4795 BL             0 LIG     0.161610
     28 H3         25.9135  113.1319   45.6634 BM             0 LIG     0.136076
     29 H4         24.4658  111.2268   50.0252 BN             0 LIG     0.176324
     30 H5         29.6289  111.6427   51.4147 BO             0 LIG     0.176324
     31 H6         31.6738  112.9306   50.8731 BP             0 LIG     0.176324
     32 H7         30.2303  113.5417   46.8552 BQ             0 LIG     0.140791
     33 H8         28.9469  111.0687   42.0645 BS             0 LIG     0.046381
     34 H9         28.7504  111.7077   43.6717 BT             0 LIG     0.046381
     35 H10        26.6286  111.9629   42.4795 BU             0 LIG     0.049941
     36 H11        26.6274  110.2906   41.9889 BV             0 LIG     0.049941
     37 H12        28.6986  108.7667   42.8413 BW             0 LIG     0.046927
     38 H13        29.9275  109.5364   43.7965 BX             0 LIG     0.046927
     39 H14        26.3149  111.3383   44.8591 BY             0 LIG     0.081886
     40 H15        25.0870  110.5687   43.8774 BZ             0 LIG     0.081886
     41 H16        28.2727  108.1180   45.0966 CB             0 LIG     0.038290
     42 H17        25.6377  109.3536   46.4946 CI             0 LIG     0.142123
     43 H18        26.0671  107.7177   45.9735 CJ             0 LIG     0.142123
     44 H19        24.7006  108.5500   45.2416 CK             0 LIG     0.142123
     45 H20        33.7942  115.8586   49.7114 CM             0 LIG     0.110774
     46 H21        33.4608  114.4131   50.6648 CN             0 LIG     0.110774
     47 H22        32.1905  115.6186   50.4104 CT             0 LIG     0.110774
     48 H23        27.9026  109.6967   46.9943 CW             0 LIG     0.042019
     49 H24        29.5140  109.7854   46.3625 DA             0 LIG     0.042019
     50 H25        29.3015  111.9445   45.5961 DB             0 LIG     0.082888
     51 H26        27.6465  111.7399   45.1252 DC             0 LIG     0.082888
     52 H27        26.4679  108.6259   43.7840 DD             0 LIG     0.271082
@<TRIPOS>BOND
        1  1  2  2
        2  1  3  1
        3  1  26  1
        4  2  4  1
        5  2  27  1
        6  3  8  2
        7  3  28  1
        8  4  10  2
        9  4  29  1
        10  5  6  1
        11  5  11  2
        12  5  30  1
        13  6  12  2
        14  6  31  1
        15  7  9  2
        16  7  12  1
        17  7  32  1
        18  8  10  1
        19  8  22  1
        20  9  11  1
        21  9  22  1
        22  10  24  1
        23  11  24  1
        24  12  25  1
        25  13  14  1
        26  13  15  1
        27  13  33  1
        28  13  34  1
        29  14  16  1
        30  14  35  1
        31  14  36  1
        32  15  17  1
        33  15  37  1
        34  15  38  1
        35  16  23  1
        36  16  39  1
        37  16  40  1
        38  17  20  1
        39  17  23  1
        40  17  41  1
        41  18  23  1
        42  18  42  1
        43  18  43  1
        44  18  44  1
        45  19  25  1
        46  19  45  1
        47  19  46  1
        48  19  47  1
        49  20  21  1
        50  20  48  1
        51  20  49  1
        52  21  22  1
        53  21  50  1
        54  21  51  1
        55  23  52  1
@<TRIPOS>SUBSTRUCTURE
       1 LIG             1 RESIDUE    0 **** ROOT      0

