@<TRIPOS>MOLECULE
LIG
52 55
SMALL
USER_CHARGES
@<TRIPOS>ATOM
      1 C1           16.450      0.303      0.617 AA            1 LIG       -0.151741
      2 C2           16.327      1.682      0.723 AB            1 LIG       -0.151741
      3 C3           15.322     -0.508      0.730 AD            1 LIG       -0.220252
      4 C4           15.080      2.244      0.967 AE            1 LIG       -0.194616
      5 C5           10.129      1.667      0.235 AF            1 LIG       -0.194616
      6 C6            9.168      0.850     -0.347 AH            1 LIG       -0.194616
      7 C7           10.601     -1.056      0.006 AI            1 LIG       -0.276550
      8 C8           14.035      0.030      0.947 AJ            1 LIG        0.084603
      9 C9           11.608     -0.251      0.580 AK            1 LIG        0.084603
     10 C10          13.949      1.433      1.094 AN            1 LIG        0.112404
     11 C11          11.328      1.127      0.706 AO            1 LIG        0.112404
     12 C12           9.398     -0.516     -0.458 AP            1 LIG        0.163041
     13 C13          15.566     -5.090      0.220 AQ            1 LIG       -0.029878
     14 C14          15.766     -5.615     -1.215 AV            1 LIG       -0.034345
     15 C15          14.087     -5.185      0.648 AW            1 LIG       -0.054555
     16 C16          14.822     -4.953     -2.239 AX            1 LIG        0.011138
     17 C17          13.127     -4.459     -0.328 AY            1 LIG        0.149935
     18 C18          12.376     -4.573     -2.807 AZ            1 LIG       -0.244054
     19 C19           8.949     -3.024     -1.846 BB            1 LIG       -0.160589
     20 C20          13.284     -2.911     -0.368 BC            1 LIG       -0.033239
     21 C21          13.025     -2.243      1.011 BD            1 LIG        0.039575
     22 N1           12.867     -0.773      0.972 BF            1 LIG       -0.187004
     23 N2           13.364     -5.079     -1.736 BG            1 LIG       -0.070769
     24 S1           12.437      2.200      1.536 BH            1 LIG       -0.197900
     25 S2            8.147     -1.538     -1.185 BJ            1 LIG       -0.258446
     26 H1           17.420     -0.141      0.446 BK            1 LIG        0.161610
     27 H2           17.199      2.314      0.635 BL            1 LIG        0.161610
     28 H3           15.492     -1.567      0.643 BM            1 LIG        0.136076
     29 H4           14.997      3.315      1.081 BN            1 LIG        0.176324
     30 H5            9.929      2.724      0.341 BO            1 LIG        0.176324
     31 H6            8.241      1.280     -0.698 BP            1 LIG        0.176324
     32 H7           10.736     -2.120     -0.091 BQ            1 LIG        0.140791
     33 H8           16.188     -5.660      0.911 BS            1 LIG        0.046381
     34 H9           15.911     -4.058      0.289 BT            1 LIG        0.046381
     35 H10          16.801     -5.458     -1.521 BU            1 LIG        0.049941
     36 H11          15.610     -6.695     -1.230 BV            1 LIG        0.049941
     37 H12          13.810     -6.239      0.699 BW            1 LIG        0.046927
     38 H13          13.962     -4.807      1.663 BX            1 LIG        0.046927
     39 H14          15.037     -3.899     -2.415 BY            1 LIG        0.081886
     40 H15          14.870     -5.498     -3.184 BZ            1 LIG        0.081886
     41 H16          12.098     -4.731     -0.088 CB            1 LIG        0.038290
     42 H17          12.623     -3.541     -3.059 CI            1 LIG        0.142123
     43 H18          11.373     -4.665     -2.390 CJ            1 LIG        0.142123
     44 H19          12.494     -5.225     -3.673 CK            1 LIG        0.142123
     45 H20           8.240     -3.593     -2.447 CM            1 LIG        0.110774
     46 H21           9.300     -3.666     -1.038 CN            1 LIG        0.110774
     47 H22           9.795     -2.750     -2.477 CT            1 LIG        0.110774
     48 H23          14.300     -2.690     -0.681 CW            1 LIG        0.042019
     49 H24          12.660     -2.451     -1.132 DA            1 LIG        0.042019
     50 H25          12.164     -2.698      1.503 DB            1 LIG        0.082888
     51 H26          13.828     -2.490      1.707 DC            1 LIG        0.082888
     52 H27          13.189     -6.069     -1.633 DD            1 LIG        0.271082
@<TRIPOS>BOND
        1  1  2  2
        2  1  3  1
        3  1  26  1
        4  2  4  1
        5  2  27  1
        6  3  8  2
        7  3  28  1
        8  4  10  2
        9  4  29  1
        10  5  6  1
        11  5  11  2
        12  5  30  1
        13  6  12  2
        14  6  31  1
        15  7  9  2
        16  7  12  1
        17  7  32  1
        18  8  10  1
        19  8  22  1
        20  9  11  1
        21  9  22  1
        22  10  24  1
        23  11  24  1
        24  12  25  1
        25  13  14  1
        26  13  15  1
        27  13  33  1
        28  13  34  1
        29  14  16  1
        30  14  35  1
        31  14  36  1
        32  15  17  1
        33  15  37  1
        34  15  38  1
        35  16  23  1
        36  16  39  1
        37  16  40  1
        38  17  20  1
        39  17  23  1
        40  17  41  1
        41  18  23  1
        42  18  42  1
        43  18  43  1
        44  18  44  1
        45  19  25  1
        46  19  45  1
        47  19  46  1
        48  19  47  1
        49  20  21  1
        50  20  48  1
        51  20  49  1
        52  21  22  1
        53  21  50  1
        54  21  51  1
        55  23  52  1
@<TRIPOS>SUBSTRUCTURE
       1 LIG             1 RESIDUE    0 **** ROOT      0
