@<TRIPOS>MOLECULE
LIG
50 53
SMALL
USER_CHARGES
@<TRIPOS>ATOM
      1 C1         24.1864  112.5415   46.9346 AA             0 LIG     -0.146946
      2 C2         23.7930  111.9956   48.1688 AB             0 LIG     -0.146946
      3 C3         25.5509  112.6002   46.5917 AD             0 LIG     -0.213882
      4 C4         24.7674  111.5116   49.0578 AE             0 LIG     -0.189563
      5 C5         29.7450  112.0646   50.4259 AF             0 LIG     -0.189563
      6 C6         30.9092  112.7938   50.1257 AH             0 LIG     -0.186283
      7 C7         30.1103  113.1032   47.8453 AI             0 LIG     -0.267664
      8 C8         26.5487  112.1164   47.4742 AJ             0 LIG     0.094519
      9 C9         28.9326  112.3702   48.1248 AK             0 LIG     0.094519
     10 C10        26.1343  111.5767   48.7208 AN             0 LIG     0.116195
     11 C11        28.7604  111.8606   49.4386 AO             0 LIG     0.116195
     12 C12        31.0937  113.3222   48.8314 AP             0 LIG     -0.069395
     13 C13        26.4484  108.3973   44.2546 AQ             0 LIG     -0.041121
     14 C14        27.3141  109.2685   42.1443 AV             0 LIG     -0.041121
     15 C15        25.0260  108.4404   43.6693 AW             0 LIG     0.063286
     16 C16        25.8737  109.2926   41.5903 AX             0 LIG     0.063286
     17 C17        28.6288  109.9608   45.7794 AY             0 LIG     -0.016690
     18 C18        28.2086  111.5047   45.8354 AZ             0 LIG     0.028631
     19 C19        28.6305  109.5009   44.3055 BB             0 LIG     -0.059139
     20 N1         27.9199  112.1516   47.1513 BC             0 LIG     -0.187888
     21 N2         27.2983  109.4466   43.6252 BD             0 LIG     -0.035261
     22 N3         25.0702  108.2510   42.2259 BF             0 LIG     -0.795699
     23 F1         31.9716  115.3193   48.0122 BG             0 LIG     -0.251326
     24 F2         32.9994  113.4779   47.5181 BH             0 LIG     -0.251326
     25 F3         33.1412  114.2960   49.5199 BJ             0 LIG     -0.251326
     26 S1         27.3100  110.9631   49.8863 BK             0 LIG     -0.162784
     27 C20        32.3341  114.1245   48.4743 BL             0 LIG     0.697269
     28 H1         23.4388  112.9355   46.2603 BM             0 LIG     0.171877
     29 H2         22.7471  111.9658   48.4403 BN             0 LIG     0.171877
     30 H3         25.8097  113.0664   45.6552 BO             0 LIG     0.150837
     31 H4         24.4658  111.1083   50.0138 BP             0 LIG     0.186066
     32 H5         29.5984  111.6793   51.4257 BQ             0 LIG     0.186066
     33 H6         31.6523  112.9613   50.8924 BS             0 LIG     0.189607
     34 H7         30.2715  113.5560   46.8806 BT             0 LIG     0.149674
     35 H8         26.4061  108.5637   45.3315 BU             0 LIG     0.093433
     36 H9         26.8989  107.4135   44.1035 BV             0 LIG     0.093433
     37 H10        27.8162  108.3398   41.8634 BW             0 LIG     0.093433
     38 H11        27.8490  110.0731   41.6396 BX             0 LIG     0.093433
     39 H12        24.4204  107.6510   44.1175 BY             0 LIG     0.105981
     40 H13        24.5383  109.3868   43.9105 BZ             0 LIG     0.105981
     41 H14        25.4106  110.2671   41.7587 CB             0 LIG     0.105981
     42 H15        25.8723  109.1368   40.5104 CI             0 LIG     0.105981
     43 H16        29.5836  109.7317   46.2834 CJ             0 LIG     0.044237
     44 H17        27.9487  109.2212   46.2417 CK             0 LIG     0.044237
     45 H18        29.0122  112.0626   45.3888 CM             0 LIG     0.093748
     46 H19        27.3382  111.6360   45.1985 CN             0 LIG     0.093748
     47 H20        29.2731  110.1791   43.7364 CT             0 LIG     0.094892
     48 H21        29.1074  108.5265   44.2766 CW             0 LIG     0.094892
     49 H22        25.3342  107.3102   41.9457 DA             0 LIG     0.419755
     50 H23        26.8475  110.3287   43.8019 DB             0 LIG     0.340852
@<TRIPOS>BOND
        1  1  2  2
        2  1  3  1
        3  1  28  1
        4  2  4  1
        5  2  29  1
        6  3  8  2
        7  3  30  1
        8  4  10  2
        9  4  31  1
        10  5  6  1
        11  5  11  2
        12  5  32  1
        13  6  12  2
        14  6  33  1
        15  7  9  2
        16  7  12  1
        17  7  34  1
        18  8  10  1
        19  8  20  1
        20  9  11  1
        21  9  20  1
        22  10  26  1
        23  11  26  1
        24  12  27  1
        25  13  15  1
        26  13  21  1
        27  13  35  1
        28  13  36  1
        29  14  16  1
        30  14  21  1
        31  14  37  1
        32  14  38  1
        33  15  22  1
        34  15  39  1
        35  15  40  1
        36  16  22  1
        37  16  41  1
        38  16  42  1
        39  17  18  1
        40  17  19  1
        41  17  43  1
        42  17  44  1
        43  18  20  1
        44  18  45  1
        45  18  46  1
        46  19  21  1
        47  19  47  1
        48  19  48  1
        49  21  50  1
        50  22  49  1
        51  23  27  1
        52  24  27  1
        53  25  27  1
@<TRIPOS>SUBSTRUCTURE
       1 LIG             1 RESIDUE    0 **** ROOT      0

