@<TRIPOS>MOLECULE
LIG
50 53
SMALL
USER_CHARGES
@<TRIPOS>ATOM
      1 C1         24.2815  113.0620   47.1435 AA             0 LIG     -0.148793
      2 C2         23.8867  112.5738   48.4022 AB             0 LIG     -0.148793
      3 C3         25.6093  112.8923   46.7039 AD             0 LIG     -0.214109
      4 C4         24.8192  111.9075   49.2188 AE             0 LIG     -0.192215
      5 C5         29.7572  111.9954   50.4285 AF             0 LIG     -0.192215
      6 C6         30.9305  112.7703   50.1151 AH             0 LIG     -0.190417
      7 C7         30.1157  113.0901   47.8403 AI             0 LIG     -0.264320
      8 C8         26.5650  112.2429   47.5242 AJ             0 LIG     0.095370
      9 C9         28.9516  112.3354   48.1238 AK             0 LIG     0.095370
     10 C10        26.1508  111.7492   48.7884 AN             0 LIG     0.116137
     11 C11        28.7875  111.8167   49.4276 AO             0 LIG     0.116137
     12 C12        31.0936  113.3244   48.8242 AP             0 LIG     -0.071581
     13 C13        26.6157  109.9633   43.4045 AQ             0 LIG     0.037365
     14 C14        26.1383  108.7278   45.4102 AV             0 LIG     0.037365
     15 C15        25.2561  109.5639   42.8038 AW             0 LIG     0.086222
     16 C16        24.7655  108.3092   44.8483 AX             0 LIG     0.086222
     17 C17        28.4090  109.8507   46.1549 AY             0 LIG     0.011333
     18 C18        28.2641  111.3806   46.0145 AZ             0 LIG     0.026484
     19 C19        28.4238  109.2212   44.7597 BB             0 LIG     0.037611
     20 N1         27.9258  112.1869   47.1670 BC             0 LIG     -0.178062
     21 N2         27.0761  108.8950   44.2927 BD             0 LIG     -0.528710
     22 N3         24.2762  109.3198   43.8855 BF             0 LIG     -0.527743
     23 F1         32.8946  113.7353   47.4057 BG             0 LIG     -0.255693
     24 F2         33.1683  114.2697   49.4857 BH             0 LIG     -0.255693
     25 F3         31.8515  115.4435   48.2325 BJ             0 LIG     -0.255693
     26 S1         27.3086  110.9663   49.8744 BK             0 LIG     -0.174420
     27 C20        32.2842  114.2102   48.4900 BL             0 LIG     0.695255
     28 H1         23.5717  113.6031   46.5309 BM             0 LIG     0.167075
     29 H2         22.8762  112.7328   48.7508 BN             0 LIG     0.167075
     30 H3         25.8934  113.3265   45.7589 BO             0 LIG     0.157041
     31 H4         24.5233  111.5601   50.1965 BP             0 LIG     0.180382
     32 H5         29.6428  111.6238   51.4108 BQ             0 LIG     0.180382
     33 H6         31.6702  112.9574   50.8816 BS             0 LIG     0.183084
     34 H7         30.2486  113.5635   46.8788 BT             0 LIG     0.171935
     35 H8         27.3344  110.1004   42.5934 BU             0 LIG     0.086347
     36 H9         26.5569  110.9145   43.9381 BV             0 LIG     0.086347
     37 H10        26.0636  109.6463   45.9966 BW             0 LIG     0.086347
     38 H11        26.4876  107.9515   46.0924 BX             0 LIG     0.086347
     39 H12        24.8922  110.3527   42.1459 BY             0 LIG     0.119217
     40 H13        25.3670  108.6657   42.1929 BZ             0 LIG     0.119217
     41 H14        24.8430  107.3364   44.3577 CB             0 LIG     0.119217
     42 H15        24.0441  108.1967   45.6596 CI             0 LIG     0.119217
     43 H16        29.3315  109.6373   46.6948 CJ             0 LIG     0.035265
     44 H17        27.6268  109.3802   46.7289 CK             0 LIG     0.035265
     45 H18        29.0790  111.7604   45.3833 CM             0 LIG     0.085093
     46 H19        27.3646  111.6955   45.5763 CN             0 LIG     0.085093
     47 H20        28.9374  109.8809   44.0535 CT             0 LIG     0.068063
     48 H21        29.0237  108.3125   44.8236 CW             0 LIG     0.068063
     49 H22        24.1288  110.1868   44.3806 DA             0 LIG     0.375757
     50 H23        23.4034  109.0093   43.4828 DB             0 LIG     0.375757
@<TRIPOS>BOND
        1  1  2  2
        2  1  3  1
        3  1  28  1
        4  2  4  1
        5  2  29  1
        6  3  8  2
        7  3  30  1
        8  4  10  2
        9  4  31  1
        10  5  6  1
        11  5  11  2
        12  5  32  1
        13  6  12  2
        14  6  33  1
        15  7  9  2
        16  7  12  1
        17  7  34  1
        18  8  10  1
        19  8  20  1
        20  9  11  1
        21  9  20  1
        22  10  26  1
        23  11  26  1
        24  12  27  1
        25  13  15  1
        26  13  21  1
        27  13  35  1
        28  13  36  1
        29  14  16  1
        30  14  21  1
        31  14  37  1
        32  14  38  1
        33  15  22  1
        34  15  39  1
        35  15  40  1
        36  16  22  1
        37  16  41  1
        38  16  42  1
        39  17  18  1
        40  17  19  1
        41  17  43  1
        42  17  44  1
        43  18  20  1
        44  18  45  1
        45  18  46  1
        46  19  21  1
        47  19  47  1
        48  19  48  1
        49  22  49  1
        50  22  50  1
        51  23  27  1
        52  24  27  1
        53  25  27  1
@<TRIPOS>SUBSTRUCTURE
       1 LIG             1 RESIDUE    0 **** ROOT      0

