@<TRIPOS>MOLECULE
LIG
50 53
SMALL
USER_CHARGES
@<TRIPOS>ATOM
      1 C1           16.433      0.298      0.582 AA            1 LIG       -0.148793
      2 C2           16.317      1.678      0.695 AB            1 LIG       -0.148793
      3 C3           15.306     -0.511      0.717 AD            1 LIG       -0.214109
      4 C4           15.075      2.243      0.962 AE            1 LIG       -0.192215
      5 C5           10.140      1.668      0.223 AF            1 LIG       -0.192215
      6 C6            9.191      0.849     -0.379 AH            1 LIG       -0.190417
      7 C7           10.614     -1.053      0.010 AI            1 LIG       -0.264320
      8 C8           14.028      0.031      0.967 AJ            1 LIG        0.095370
      9 C9           11.608     -0.248      0.606 AK            1 LIG        0.095370
     10 C10          13.946      1.435      1.111 AN            1 LIG        0.116137
     11 C11          11.328      1.130      0.720 AO            1 LIG        0.116137
     12 C12           9.416     -0.524     -0.481 AP            1 LIG       -0.071581
     13 C13          11.813     -6.186     -1.632 AQ            1 LIG        0.037365
     14 C14          13.739     -4.945     -2.478 AV            1 LIG        0.037365
     15 C15          11.451     -6.684     -3.047 AW            1 LIG        0.086222
     16 C16          13.456     -5.399     -3.925 AX            1 LIG        0.086222
     17 C17          13.198     -2.925     -0.286 AY            1 LIG        0.011333
     18 C18          13.004     -2.238      1.091 AZ            1 LIG        0.026484
     19 C19          12.740     -4.399     -0.318 BB            1 LIG        0.037611
     20 N1           12.861     -0.769      1.019 BC            1 LIG       -0.178062
     21 N2           12.503     -4.889     -1.680 BD            1 LIG       -0.528710
     22 N3           12.719     -6.748     -3.912 BF            1 LIG       -0.527743
     23 F1            8.976     -2.164     -2.098 BG            1 LIG       -0.255693
     24 F2            7.367     -0.788     -1.669 BH            1 LIG       -0.255693
     25 F3            7.912     -2.293     -0.216 BJ            1 LIG       -0.255693
     26 S1           12.434      2.203      1.558 BK            1 LIG       -0.174420
     27 C20           8.392     -1.453     -1.132 BL            1 LIG        0.695255
     28 H1           17.397     -0.147      0.385 BM            1 LIG        0.167075
     29 H2           17.188      2.307      0.588 BN            1 LIG        0.167075
     30 H3           15.465     -1.570      0.615 BO            1 LIG        0.157041
     31 H4           14.996      3.315      1.074 BP            1 LIG        0.180382
     32 H5            9.941      2.726      0.317 BQ            1 LIG        0.180382
     33 H6            8.278      1.291     -0.751 BS            1 LIG        0.183084
     34 H7           10.751     -2.117     -0.100 BT            1 LIG        0.171935
     35 H8           10.902     -6.117     -1.035 BU            1 LIG        0.086347
     36 H9           12.488     -6.905     -1.163 BV            1 LIG        0.086347
     37 H10          14.406     -5.667     -2.002 BW            1 LIG        0.086347
     38 H11          14.236     -3.974     -2.509 BX            1 LIG        0.086347
     39 H12          11.050     -7.697     -3.044 BY            1 LIG        0.119217
     40 H13          10.757     -6.020     -3.565 BZ            1 LIG        0.119217
     41 H14          12.815     -4.704     -4.471 CB            1 LIG        0.119217
     42 H15          14.370     -5.574     -4.494 CI            1 LIG        0.119217
     43 H16          12.881     -2.330     -1.145 CJ            1 LIG        0.035265
     44 H17          14.276     -2.982     -0.428 CK            1 LIG        0.035265
     45 H18          12.139     -2.653      1.612 CM            1 LIG        0.085093
     46 H19          13.823     -2.492      1.765 CN            1 LIG        0.085093
     47 H20          13.483     -5.029      0.176 CT            1 LIG        0.068063
     48 H21          11.831     -4.493      0.278 CW            1 LIG        0.068063
     49 H22          13.335     -7.459     -3.545 DA            1 LIG        0.375757
     50 H23          12.478     -7.017     -4.856 DB            1 LIG        0.375757
@<TRIPOS>BOND
        1  1  2  2
        2  1  3  1
        3  1  28  1
        4  2  4  1
        5  2  29  1
        6  3  8  2
        7  3  30  1
        8  4  10  2
        9  4  31  1
        10  5  6  1
        11  5  11  2
        12  5  32  1
        13  6  12  2
        14  6  33  1
        15  7  9  2
        16  7  12  1
        17  7  34  1
        18  8  10  1
        19  8  20  1
        20  9  11  1
        21  9  20  1
        22  10  26  1
        23  11  26  1
        24  12  27  1
        25  13  15  1
        26  13  21  1
        27  13  35  1
        28  13  36  1
        29  14  16  1
        30  14  21  1
        31  14  37  1
        32  14  38  1
        33  15  22  1
        34  15  39  1
        35  15  40  1
        36  16  22  1
        37  16  41  1
        38  16  42  1
        39  17  18  1
        40  17  19  1
        41  17  43  1
        42  17  44  1
        43  18  20  1
        44  18  45  1
        45  18  46  1
        46  19  21  1
        47  19  47  1
        48  19  48  1
        49  22  49  1
        50  22  50  1
        51  23  27  1
        52  24  27  1
        53  25  27  1
@<TRIPOS>SUBSTRUCTURE
       1 LIG             1 RESIDUE    0 **** ROOT      0
