CPZ1apsR
                    3D
 Structure written by MMmdl.
 41 43  0  0  1  0            999 V2000
   27.1748  115.6045   37.2418 C   0  0  0  0  0  0
   25.9689  116.3062   37.4251 C   0  0  0  0  0  0
   27.7520  114.9020   38.3194 C   0  0  0  0  0  0
   25.3265  116.2898   38.6757 C   0  0  0  0  0  0
   24.6297  113.0228   42.4930 C   0  0  0  0  0  0
   25.0013  111.7123   42.8394 C   0  0  0  0  0  0
   27.1908  112.0591   41.8147 C   0  0  0  0  0  0
   27.1225  114.8919   39.5817 C   0  0  0  0  0  0
   26.8154  113.3655   41.4331 C   0  0  0  0  0  0
   25.8940  115.5743   39.7502 C   0  0  0  0  0  0
   25.5290  113.8472   41.7902 C   0  0  0  0  0  0
   26.2809  111.2333   42.5022 C   0  0  0  0  0  0
   27.4381  117.6778   40.3992 C   0  0  0  0  0  0
   29.6670  118.6167   40.8066 C   0  0  0  0  0  0
   28.9196  115.4298   42.6203 C   0  0  0  0  0  0
   28.9391  114.6282   41.2688 C   0  0  0  0  0  0
   28.7300  116.9670   42.4159 C   0  0  0  0  0  0
   27.6765  114.1406   40.6363 N   0  0  0  0  0  0
   28.7810  117.4365   40.9958 N   0  3  0  0  0  0
   25.0131  115.4606   41.2786 S   0  0  0  0  0  0
   26.7205  109.6111   42.8892 Cl  0  0  0  0  0  0
   27.6415  115.5752   36.2673 H   0  0  0  0  0  0
   25.5079  116.8148   36.5899 H   0  0  0  0  0  0
   28.6588  114.3369   38.1621 H   0  0  0  0  0  0
   24.3756  116.7819   38.8048 H   0  0  0  0  0  0
   23.6381  113.3804   42.7231 H   0  0  0  0  0  0
   24.2927  111.0572   43.3255 H   0  0  0  0  0  0
   28.1532  111.6656   41.5245 H   0  0  0  0  0  0
   26.8834  118.4259   40.9670 H   0  0  0  0  0  0
   26.8480  116.7634   40.3588 H   0  0  0  0  0  0
   27.5340  118.0401   39.3773 H   0  0  0  0  0  0
   29.2844  119.4989   41.3203 H   0  0  0  0  0  0
   29.7492  118.8669   39.7516 H   0  0  0  0  0  0
   30.6787  118.4265   41.1660 H   0  0  0  0  0  0
   28.1473  115.0427   43.2749 H   0  0  0  0  0  0
   29.8572  115.2697   43.1321 H   0  0  0  0  0  0
   29.4887  115.2114   40.5337 H   0  0  0  0  0  0
   29.5476  113.7338   41.4323 H   0  0  0  0  0  0
   27.7817  117.2763   42.8678 H   0  0  0  0  0  0
   29.5126  117.4795   42.9821 H   0  0  0  0  0  0
   29.2083  116.6866   40.4618 H   0  0  0  0  0  0
  1  2  2  0  0  0
  1  3  1  0  0  0
  1 22  1  0  0  0
  2  4  1  0  0  0
  2 23  1  0  0  0
  3  8  2  0  0  0
  3 24  1  0  0  0
  4 10  2  0  0  0
  4 25  1  0  0  0
  5  6  2  0  0  0
  5 11  1  0  0  0
  5 26  1  0  0  0
  6 12  1  0  0  0
  6 27  1  0  0  0
  7  9  1  0  0  0
  7 12  2  0  0  0
  7 28  1  0  0  0
  8 10  1  0  0  0
  8 18  1  0  0  0
  9 11  2  0  0  0
  9 18  1  0  0  0
 10 20  1  0  0  0
 11 20  1  0  0  0
 12 21  1  0  0  0
 13 19  1  0  0  0
 13 29  1  0  0  0
 13 30  1  0  0  0
 13 31  1  0  0  0
 14 19  1  0  0  0
 14 32  1  0  0  0
 14 33  1  0  0  0
 14 34  1  0  0  0
 15 16  1  0  0  0
 15 17  1  0  0  0
 15 35  1  0  0  0
 15 36  1  0  0  0
 16 18  1  0  0  0
 16 37  1  0  0  0
 16 38  1  0  0  0
 17 19  1  0  0  0
 17 39  1  0  0  0
 17 40  1  0  0  0
 19 41  1  0  0  0
M  CHG  1  19   1
M  END
> <i_m_stars>
0

> <s_m_entry_id>
520

> <s_m_entry_name>
CPZ1apsR.1

> <s_m_Source_Path>
/home/emilio/Dropbox/SAMPL9-eglab/mCD/ligsdfs

> <s_m_Source_File>
CPZ1apsR.sdf

> <i_m_Source_File_Index>
1

> <i_lp_mmshare_version>
47013

> <s_epik_input>
W2NIXTFbY0hdW2NIXVtjSF1jKGMxMilTYzNjKFtjSF1jKENsKVtjSF1bY0hdMylOMltDSDJdW0NIMl1bQ0gyXU4oW0NIM10pW0NIM10=

> <s_epik_cmdline>
J2VwaWtfcHl0aG9uJywgJy1waHQnLCAnNC4wJywgJy1waCcsICc3LjQnLCAnLXRuJywgJzgnLCAnLW1hJywgJzIwMCcsICctaW1hZScsICc8aW5maWxlLm1hZT4nLCAnLW9tYWUnLCAnPG91dGZpbGUubWFlPic=

> <r_epik_Ionization_Penalty>
  0.0036

> <r_epik_Ionization_Penalty_Charging>
  0.0036

> <r_epik_Ionization_Penalty_Neutral>
  0.0000

> <r_epik_State_Penalty>
  0.0025

> <r_epik_Charging_Adjusted_Penalty>
0.00607902823301679

> <i_epik_Tot_Q>
1

> <i_epik_Tot_abs_Q>
1

> <s_lp_Force_Field>
OPLS3e

> <r_lp_Energy>
54.329832

> <b_lp_Chiralities_Consistent>
1

> <s_lp_Variant>
CPZ-1

> <s_m_job_name>
ligprep_4

> <chiral flag>
1

> <version>
0

> <i_f3d_flags>
0

> <s_m_subgroup_title>
bCDq->psR_copy1

> <s_m_subgroupid>
bCDq_copy1->psR_copy2

> <b_m_subgroup_collapsed>
0

$$$$
