PMZ1apsR
                    3D
 Structure written by MMmdl.
 41 43  0  0  1  0            999 V2000
   27.4890  116.0057   37.4667 C   0  0  0  0  0  0
   26.2674  111.2380   42.5063 C   0  0  0  0  0  0
   26.2389  116.6004   37.5655 C   0  0  0  0  0  0
   25.0438  111.7580   42.9406 C   0  0  0  0  0  0
   27.9484  115.0910   38.4425 C   0  0  0  0  0  0
   27.1367  112.0574   41.7814 C   0  0  0  0  0  0
   25.5160  116.5089   38.7690 C   0  0  0  0  0  0
   24.6949  113.1361   42.6328 C   0  0  0  0  0  0
   27.1789  114.9403   39.5662 C   0  0  0  0  0  0
   26.7642  113.3442   41.3989 C   0  0  0  0  0  0
   26.0126  115.6624   39.8023 C   0  0  0  0  0  0
   25.5664  113.8989   41.8562 C   0  0  0  0  0  0
   29.5741  117.5618   39.5469 C   0  0  0  0  0  0
   29.4646  119.2663   41.2144 C   0  0  0  0  0  0
   28.8667  115.6004   42.4157 C   0  0  0  0  0  0
   29.0457  114.5508   41.1968 C   0  0  0  0  0  0
   28.4315  116.9743   41.8440 C   0  0  0  0  0  0
   27.6853  114.1555   40.6263 N   0  0  0  0  0  0
   29.6198  117.8105   41.1162 N   0  3  0  0  0  0
   25.0179  115.4411   41.2847 S   0  0  0  0  0  0
   28.0870  116.1514   36.5839 H   0  0  0  0  0  0
   26.6560  110.2514   42.8196 H   0  0  0  0  0  0
   25.8251  117.1782   36.7333 H   0  0  0  0  0  0
   24.3695  111.1818   43.5776 H   0  0  0  0  0  0
   28.8833  114.5778   38.1997 H   0  0  0  0  0  0
   28.0597  111.6263   41.4255 H   0  0  0  0  0  0
   24.6687  117.1405   38.9583 H   0  0  0  0  0  0
   23.6891  113.5588   42.9365 H   0  0  0  0  0  0
   29.9927  116.5606   39.2824 H   0  0  0  0  0  0
   30.1226  118.4042   39.1261 H   0  0  0  0  0  0
   28.5325  117.6797   39.2140 H   0  0  0  0  0  0
   28.9547  119.6163   40.2920 H   0  0  0  0  0  0
   30.4707  119.6800   41.3423 H   0  0  0  0  0  0
   28.9956  119.4641   42.1806 H   0  0  0  0  0  0
   28.0446  115.2960   43.1309 H   0  0  0  0  0  0
   29.8336  115.7246   43.0073 H   0  0  0  0  0  0
   29.8773  114.7745   40.4415 H   0  0  0  0  0  0
   29.4910  113.6946   41.6155 H   0  0  0  0  0  0
   27.5135  116.9257   41.1883 H   0  0  0  0  0  0
   28.2961  117.5779   42.7755 H   0  0  0  0  0  0
   30.4769  117.4325   41.5503 H   0  0  0  0  0  0
  1  3  2  0  0  0
  1  5  1  0  0  0
  1 21  1  0  0  0
  2  4  2  0  0  0
  2  6  1  0  0  0
  2 22  1  0  0  0
  3  7  1  0  0  0
  3 23  1  0  0  0
  4  8  1  0  0  0
  4 24  1  0  0  0
  5  9  2  0  0  0
  5 25  1  0  0  0
  6 10  2  0  0  0
  6 26  1  0  0  0
  7 11  2  0  0  0
  7 27  1  0  0  0
  8 12  2  0  0  0
  8 28  1  0  0  0
  9 11  1  0  0  0
  9 18  1  0  0  0
 10 12  1  0  0  0
 10 18  1  0  0  0
 11 20  1  0  0  0
 12 20  1  0  0  0
 13 19  1  0  0  0
 13 29  1  0  0  0
 13 30  1  0  0  0
 13 31  1  0  0  0
 14 19  1  0  0  0
 14 32  1  0  0  0
 14 33  1  0  0  0
 14 34  1  0  0  0
 15 16  1  0  0  0
 15 17  1  0  0  0
 15 35  1  0  0  0
 15 36  1  0  0  0
 16 18  1  0  0  0
 16 37  1  0  0  0
 16 38  1  0  0  0
 17 19  1  0  0  0
 17 39  1  0  0  0
 17 40  1  0  0  0
 19 41  1  0  0  0
M  CHG  1  19   1
M  END
> <i_m_stars>
0

> <s_m_entry_id>
533

> <s_m_entry_name>
PMZ1apsR-q.1

> <s_m_Source_Path>
/u1/users/egallicchio/Dropbox/sims/SAMPL9/work/FFEngine/postc/bCDpsRf/ligands

> <s_m_Source_File>
PMZ1apsR-q.sdf

> <i_m_Source_File_Index>
1

> <r_epik_Ionization_Penalty>
  0.0034

> <r_epik_State_Penalty>
  0.0024

> <i_epik_Tot_Q>
1

> <s_m_job_name>
ligprep_4

> <chiral flag>
1

> <version>
0

> <i_f3d_flags>
0

> <s_m_subgroup_title>
bCDq->psR_copy1

> <s_m_subgroupid>
bCDq_copy1->psR_copy2

> <b_m_subgroup_collapsed>
0

$$$$
