TDZNR1apsR
                    3D
 Structure written by MMmdl.
 52 55  0  0  1  0            999 V2000
   27.2057  115.6999   37.2502 C   0  0  0  0  0  0
   25.9558  116.3239   37.4212 C   0  0  0  0  0  0
   27.8083  115.0195   38.3273 C   0  0  0  0  0  0
   25.3068  116.2671   38.6666 C   0  0  0  0  0  0
   24.6856  113.0668   42.5947 C   0  0  0  0  0  0
   25.0490  111.7573   42.9501 C   0  0  0  0  0  0
   27.1502  112.0177   41.7400 C   0  0  0  0  0  0
   27.1536  114.9329   39.5787 C   0  0  0  0  0  0
   26.8169  113.3495   41.4107 C   0  0  0  0  0  0
   25.8965  115.5706   39.7403 C   0  0  0  0  0  0
   25.5559  113.8522   41.8114 C   0  0  0  0  0  0
   26.2754  111.2275   42.5071 C   0  0  0  0  0  0
   28.6667  118.7139   40.0206 C   0  0  0  0  0  0
   29.9654  119.4348   40.3891 C   0  0  0  0  0  0
   28.7473  117.2459   40.4569 C   0  0  0  0  0  0
   30.2734  119.2803   41.9044 C   0  0  0  0  0  0
   29.1229  117.0872   41.9731 C   0  0  1  0  0  0
   30.8565  117.6810   43.7528 C   0  0  0  0  0  0
   25.1870  108.7630   43.5366 C   0  0  0  0  0  0
   29.1507  115.5589   42.3362 C   0  0  0  0  0  0
   28.9890  114.5370   41.1596 C   0  0  0  0  0  0
   27.6713  114.1546   40.6332 N   0  0  0  0  0  0
   30.3769  117.8518   42.3194 N   0  3  2  0  0  0
   25.0240  115.4526   41.2771 S   0  0  0  0  0  0
   26.6937  109.5594   42.9081 S   0  0  0  0  0  0
   27.6854  115.7129   36.2822 H   0  0  0  0  0  0
   25.4791  116.8154   36.5844 H   0  0  0  0  0  0
   28.7466  114.5147   38.1556 H   0  0  0  0  0  0
   24.3358  116.7186   38.7900 H   0  0  0  0  0  0
   23.7237  113.4614   42.8833 H   0  0  0  0  0  0
   24.3624  111.1412   43.5152 H   0  0  0  0  0  0
   28.0680  111.5939   41.3651 H   0  0  0  0  0  0
   27.8176  119.2009   40.5028 H   0  0  0  0  0  0
   28.4864  118.7840   38.9451 H   0  0  0  0  0  0
   30.7913  119.0459   39.7918 H   0  0  0  0  0  0
   29.8838  120.4962   40.1277 H   0  0  0  0  0  0
   27.7904  116.7592   40.2237 H   0  0  0  0  0  0
   29.4846  116.7345   39.8362 H   0  0  0  0  0  0
   31.2088  119.7859   42.1116 H   0  0  0  0  0  0
   29.4939  119.7997   42.4702 H   0  0  0  0  0  0
   28.2703  117.5356   42.5160 H   0  0  0  0  0  0
   30.0884  118.0527   44.4130 H   0  0  0  0  0  0
   31.8667  117.9576   44.0677 H   0  0  0  0  0  0
   30.9962  116.6433   43.9556 H   0  0  0  0  0  0
   25.4335  107.8093   44.0046 H   0  0  0  0  0  0
   24.4864  108.5718   42.7238 H   0  0  0  0  0  0
   24.6980  109.3924   44.2819 H   0  0  0  0  0  0
   30.1170  115.3640   42.7855 H   0  0  0  0  0  0
   28.5075  115.3648   43.1908 H   0  0  0  0  0  0
   29.7214  114.7601   40.3751 H   0  0  0  0  0  0
   29.2127  113.5447   41.5544 H   0  0  0  0  0  0
   31.0719  117.4445   41.7169 H   0  0  0  0  0  0
  1  2  2  0  0  0
  1  3  1  0  0  0
  1 26  1  0  0  0
  2  4  1  0  0  0
  2 27  1  0  0  0
  3  8  2  0  0  0
  3 28  1  0  0  0
  4 10  2  0  0  0
  4 29  1  0  0  0
  5  6  2  0  0  0
  5 11  1  0  0  0
  5 30  1  0  0  0
  6 12  1  0  0  0
  6 31  1  0  0  0
  7  9  1  0  0  0
  7 12  2  0  0  0
  7 32  1  0  0  0
  8 10  1  0  0  0
  8 22  1  0  0  0
  9 11  2  0  0  0
  9 22  1  0  0  0
 10 24  1  0  0  0
 11 24  1  0  0  0
 12 25  1  0  0  0
 13 14  1  0  0  0
 13 15  1  0  0  0
 13 33  1  0  0  0
 13 34  1  0  0  0
 14 16  1  0  0  0
 14 35  1  0  0  0
 14 36  1  0  0  0
 15 17  1  0  0  0
 15 37  1  0  0  0
 15 38  1  0  0  0
 16 23  1  0  0  0
 16 39  1  0  0  0
 16 40  1  0  0  0
 17 20  1  0  0  0
 17 23  1  0  0  0
 17 41  1  0  0  0
 18 23  1  0  0  0
 18 42  1  0  0  0
 18 43  1  0  0  0
 18 44  1  0  0  0
 19 25  1  0  0  0
 19 45  1  0  0  0
 19 46  1  0  0  0
 19 47  1  0  0  0
 20 21  1  0  0  0
 20 48  1  0  0  0
 20 49  1  0  0  0
 21 22  1  0  0  0
 21 50  1  0  0  0
 21 51  1  0  0  0
 23 52  1  0  0  0
M  CHG  1  23   1
M  END
> <i_m_stars>
0

> <s_m_entry_id>
526

> <s_m_entry_name>
TDZNR1apsR.1

> <s_m_Source_Path>
/home/emilio/Dropbox/SAMPL9-eglab/mCD/ligsdfs

> <s_m_Source_File>
TDZNR1apsR.sdf

> <i_m_Source_File_Index>
1

> <i_lp_mmshare_version>
47013

> <s_epik_input>
W2NIXTFbY0hdW2NIXVtjSF1jKGMxMilTYzNjKFtjSF1jKFtjSF1bY0hdMylTW0NIM10pTjJbQ0gyXVtDSDJdW0NAQEhdNFtDSDJdW0NIMl1bQ0gyXVtDSDJdTjRbQ0gzXQ==

> <s_epik_cmdline>
J2VwaWtfcHl0aG9uJywgJy1waHQnLCAnNC4wJywgJy1waCcsICc3LjQnLCAnLXRuJywgJzgnLCAnLW1hJywgJzIwMCcsICctaW1hZScsICc8aW5maWxlLm1hZT4nLCAnLW9tYWUnLCAnPG91dGZpbGUubWFlPic=

> <r_epik_Ionization_Penalty>
  0.0017

> <r_epik_Ionization_Penalty_Charging>
  0.0017

> <r_epik_Ionization_Penalty_Neutral>
  0.0000

> <r_epik_State_Penalty>
  0.0011

> <r_epik_Charging_Adjusted_Penalty>
0.00279136850725907

> <i_epik_Tot_Q>
1

> <i_epik_Tot_abs_Q>
1

> <s_lp_Force_Field>
OPLS3e

> <r_lp_Energy>
55.960333

> <b_lp_Chiralities_Consistent>
1

> <s_lp_Variant>
TDZ-NR-1

> <s_m_job_name>
ligprep_4

> <chiral flag>
1

> <version>
0

> <i_f3d_flags>
0

> <s_m_subgroup_title>
bCDq->psR_copy1

> <s_m_subgroupid>
bCDq_copy1->psR_copy2

> <b_m_subgroup_collapsed>
0

$$$$
