TFP1bpsR
                    3D
 Structure written by MMmdl.
 50 53  0  0  1  0            999 V2000
   27.2546  116.0306   37.3932 C   0  0  0  0  0  0
   25.9806  116.5583   37.5624 C   0  0  0  0  0  0
   27.8334  115.2680   38.4053 C   0  0  0  0  0  0
   25.2982  116.3375   38.7534 C   0  0  0  0  0  0
   24.5973  112.9768   42.3358 C   0  0  0  0  0  0
   24.9667  111.7023   42.7472 C   0  0  0  0  0  0
   27.1652  112.0660   41.8348 C   0  0  0  0  0  0
   27.1604  115.0057   39.6185 C   0  0  0  0  0  0
   26.8160  113.3542   41.3816 C   0  0  0  0  0  0
   25.8803  115.5830   39.7743 C   0  0  0  0  0  0
   25.5091  113.8003   41.6739 C   0  0  0  0  0  0
   26.2609  111.2385   42.5090 C   0  0  0  0  0  0
   30.2243  119.1705   40.7515 C   0  0  0  0  0  0
   31.1288  117.2035   39.6418 C   0  0  0  0  0  0
   31.4199  120.0046   40.2288 C   0  0  0  0  0  0
   32.3097  118.0552   39.1284 C   0  0  0  0  0  0
   29.8498  115.4595   42.0264 C   0  0  0  0  0  0
   29.1210  114.3887   41.0607 C   0  0  0  0  0  0
   29.4677  116.8972   41.4787 C   0  0  0  0  0  0
   27.6991  114.1598   40.6190 N   0  0  0  0  0  0
   30.5758  117.7300   40.9189 N   0  3  0  0  0  0
   31.9278  119.4536   38.9791 N   0  0  0  0  0  0
   27.7476  109.9607   43.7890 F   0  0  0  0  0  0
   27.0731  109.1288   41.9062 F   0  0  0  0  0  0
   25.7382  109.1865   43.6052 F   0  0  0  0  0  0
   25.0105  115.4373   41.2897 S   0  0  0  0  0  0
   26.7043  109.8494   42.9660 C   0  0  0  0  0  0
   27.7938  116.2073   36.4736 H   0  0  0  0  0  0
   25.5281  117.1480   36.7787 H   0  0  0  0  0  0
   28.8197  114.8791   38.2079 H   0  0  0  0  0  0
   24.3185  116.7733   38.8889 H   0  0  0  0  0  0
   23.6004  113.3334   42.5524 H   0  0  0  0  0  0
   24.2436  111.0879   43.2639 H   0  0  0  0  0  0
   28.1526  111.6669   41.6752 H   0  0  0  0  0  0
   29.9181  119.5916   41.7091 H   0  0  0  0  0  0
   29.3668  119.2760   40.0925 H   0  0  0  0  0  0
   30.3415  117.1361   38.9012 H   0  0  0  0  0  0
   31.4915  116.1943   39.7937 H   0  0  0  0  0  0
   31.1398  121.0462   40.0657 H   0  0  0  0  0  0
   32.2178  120.0224   40.9668 H   0  0  0  0  0  0
   33.1517  117.9818   39.8108 H   0  0  0  0  0  0
   32.6699  117.6836   38.1688 H   0  0  0  0  0  0
   29.3906  115.4576   43.0167 H   0  0  0  0  0  0
   30.9176  115.3945   42.1711 H   0  0  0  0  0  0
   29.6590  114.5058   40.1104 H   0  0  0  0  0  0
   29.2833  113.4096   41.5309 H   0  0  0  0  0  0
   28.6975  116.8535   40.7176 H   0  0  0  0  0  0
   29.0112  117.4905   42.2711 H   0  0  0  0  0  0
   31.3783  119.6706   38.1503 H   0  0  0  0  0  0
   31.3417  117.7325   41.5823 H   0  0  0  0  0  0
  1  2  2  0  0  0
  1  3  1  0  0  0
  1 28  1  0  0  0
  2  4  1  0  0  0
  2 29  1  0  0  0
  3  8  2  0  0  0
  3 30  1  0  0  0
  4 10  2  0  0  0
  4 31  1  0  0  0
  5  6  2  0  0  0
  5 11  1  0  0  0
  5 32  1  0  0  0
  6 12  1  0  0  0
  6 33  1  0  0  0
  7  9  1  0  0  0
  7 12  2  0  0  0
  7 34  1  0  0  0
  8 10  1  0  0  0
  8 20  1  0  0  0
  9 11  2  0  0  0
  9 20  1  0  0  0
 10 26  1  0  0  0
 11 26  1  0  0  0
 12 27  1  0  0  0
 13 15  1  0  0  0
 13 21  1  0  0  0
 13 35  1  0  0  0
 13 36  1  0  0  0
 14 16  1  0  0  0
 14 21  1  0  0  0
 14 37  1  0  0  0
 14 38  1  0  0  0
 15 22  1  0  0  0
 15 39  1  0  0  0
 15 40  1  0  0  0
 16 22  1  0  0  0
 16 41  1  0  0  0
 16 42  1  0  0  0
 17 18  1  0  0  0
 17 19  1  0  0  0
 17 43  1  0  0  0
 17 44  1  0  0  0
 18 20  1  0  0  0
 18 45  1  0  0  0
 18 46  1  0  0  0
 19 21  1  0  0  0
 19 47  1  0  0  0
 19 48  1  0  0  0
 21 50  1  0  0  0
 22 49  1  0  0  0
 23 27  1  0  0  0
 24 27  1  0  0  0
 25 27  1  0  0  0
M  CHG  1  21   1
M  END
> <i_m_stars>
0

> <s_m_entry_id>
531

> <s_m_entry_name>
TFP1bpsR.1

> <s_m_Source_Path>
/home/emilio/Dropbox/SAMPL9-eglab/mCD/ligsdfs

> <s_m_Source_File>
TFP1bpsR.sdf

> <i_m_Source_File_Index>
1

> <i_lp_mmshare_version>
47013

> <s_epik_input>
W2NIXTFbY0hdW2NIXVtjSF1jKGMxMilTYzNjKFtjSF1jKEMoRikoRilGKVtjSF1bY0hdMylOMltDSDJdW0NIMl1bQ0gyXU40W0NIMl1bQ0gyXVtOSF1bQ0gyXVtDSDJdNA==

> <s_epik_cmdline>
J2VwaWtfcHl0aG9uJywgJy1waHQnLCAnNC4wJywgJy1waCcsICc3LjQnLCAnLXRuJywgJzgnLCAnLW1hJywgJzIwMCcsICctaW1hZScsICc8aW5maWxlLm1hZT4nLCAnLW9tYWUnLCAnPG91dGZpbGUubWFlPic=

> <r_epik_Ionization_Penalty>
  0.1004

> <r_epik_Ionization_Penalty_Charging>
  0.0867

> <r_epik_Ionization_Penalty_Neutral>
  0.0137

> <r_epik_State_Penalty>
  1.6660

> <r_epik_Charging_Adjusted_Penalty>
1.75263574697331

> <i_epik_Tot_Q>
1

> <i_epik_Tot_abs_Q>
1

> <s_lp_Force_Field>
OPLS3e

> <r_lp_Energy>
57.544639

> <b_lp_Chiralities_Consistent>
1

> <s_lp_Variant>
TFP-2

> <s_m_job_name>
ligprep_4

> <chiral flag>
1

> <version>
0

> <i_f3d_flags>
0

> <s_m_subgroup_title>
bCDq->psR_copy1

> <s_m_subgroupid>
bCDq_copy1->psR_copy2

> <b_m_subgroup_collapsed>
0

$$$$
