CPZ1appR
                    3D
 Schrodinger Suite 2019-4.
 41 43  0  0  1  0            999 V2000
   22.3601  113.0062   52.2074 C   0  0  0  0  0  0
   21.0410  112.5157   52.3162 C   0  0  0  0  0  0
   22.6136  114.2002   51.5041 C   0  0  0  0  0  0
   19.9781  113.2168   51.7145 C   0  0  0  0  0  0
   18.6975  117.9954   51.1786 C   0  0  0  0  0  0
   19.2335  119.2475   51.5296 C   0  0  0  0  0  0
   21.4642  118.4716   50.8925 C   0  0  0  0  0  0
   21.5577  114.9080   50.8954 C   0  0  0  0  0  0
   20.9413  117.2018   50.5834 C   0  0  0  0  0  0
   20.2332  114.4183   51.0289 C   0  0  0  0  0  0
   19.5487  116.9720   50.7259 C   0  0  0  0  0  0
   20.6151  119.4838   51.3830 C   0  0  0  0  0  0
   25.5075  118.5394   47.1343 C   0  0  0  0  0  0
   24.2563  118.6495   45.0273 C   0  0  0  0  0  0
   23.0267  117.2334   48.3870 C   0  0  0  0  0  0
   22.1396  116.0536   48.8322 C   0  0  0  0  0  0
   23.3778  117.2590   46.8869 C   0  0  0  0  0  0
   21.8026  116.1391   50.2593 N   0  0  0  0  0  0
   24.1661  118.4664   46.4985 N   0  3  0  0  0  0
   18.8880  115.3676   50.3975 S   0  0  0  0  0  0
   21.2739  121.0172   51.8261 Cl  0  0  0  0  0  0
   23.1715  112.4710   52.6822 H   0  0  0  0  0  0
   20.8384  111.6118   52.8740 H   0  0  0  0  0  0
   23.6219  114.5829   51.4496 H   0  0  0  0  0  0
   18.9640  112.8559   51.8074 H   0  0  0  0  0  0
   17.6404  117.7985   51.2849 H   0  0  0  0  0  0
   18.5824  120.0241   51.9058 H   0  0  0  0  0  0
   22.5217  118.6698   50.7906 H   0  0  0  0  0  0
   26.1097  117.6608   46.8932 H   0  0  0  0  0  0
   25.4381  118.6207   48.2211 H   0  0  0  0  0  0
   26.0530  119.4216   46.7939 H   0  0  0  0  0  0
   24.8272  117.8441   44.5600 H   0  0  0  0  0  0
   24.7546  119.5953   44.7894 H   0  0  0  0  0  0
   23.2648  118.6822   44.5698 H   0  0  0  0  0  0
   22.5295  118.1663   48.6618 H   0  0  0  0  0  0
   23.9561  117.1780   48.9492 H   0  0  0  0  0  0
   21.2234  116.0389   48.2353 H   0  0  0  0  0  0
   22.6471  115.1069   48.6300 H   0  0  0  0  0  0
   23.9189  116.3548   46.6098 H   0  0  0  0  0  0
   22.4496  117.2409   46.3103 H   0  0  0  0  0  0
   23.6455  119.2647   46.8382 H   0  0  0  0  0  0
  1  2  2  0  0  0
  1  3  1  0  0  0
  1 22  1  0  0  0
  2  4  1  0  0  0
  2 23  1  0  0  0
  3  8  2  0  0  0
  3 24  1  0  0  0
  4 10  2  0  0  0
  4 25  1  0  0  0
  5  6  2  0  0  0
  5 11  1  0  0  0
  5 26  1  0  0  0
  6 12  1  0  0  0
  6 27  1  0  0  0
  7  9  1  0  0  0
  7 12  2  0  0  0
  7 28  1  0  0  0
  8 10  1  0  0  0
  8 18  1  0  0  0
  9 11  2  0  0  0
  9 18  1  0  0  0
 10 20  1  0  0  0
 11 20  1  0  0  0
 12 21  1  0  0  0
 13 19  1  0  0  0
 13 29  1  0  0  0
 13 30  1  0  0  0
 13 31  1  0  0  0
 14 19  1  0  0  0
 14 32  1  0  0  0
 14 33  1  0  0  0
 14 34  1  0  0  0
 15 16  1  0  0  0
 15 17  1  0  0  0
 15 35  1  0  0  0
 15 36  1  0  0  0
 16 18  1  0  0  0
 16 37  1  0  0  0
 16 38  1  0  0  0
 17 19  1  0  0  0
 17 39  1  0  0  0
 17 40  1  0  0  0
 19 41  1  0  0  0
M  CHG  1  19   1
M  END
> <i_m_stars>
0

> <s_m_entry_id>
640

> <s_m_Source_Path>
/home/emilio/Dropbox/SAMPL9-eglab/mCD/ligsdfs

> <s_m_Source_File>
CPZ1appR.sdf

> <i_m_Source_File_Index>
1

> <r_epik_Ionization_Penalty>
  0.0036

> <r_epik_State_Penalty>
  0.0025

> <i_epik_Tot_Q>
1

> <s_m_job_name>
ligprep_4

> <i_f3d_flags>
0

$$$$
