@<TRIPOS>MOLECULE
LIG
41 43
SMALL
USER_CHARGES
@<TRIPOS>ATOM
      1 C1         22.3601  113.0062   52.2074 AA             0 LIG     -0.148984
      2 C2         21.0410  112.5157   52.3162 AB             0 LIG     -0.148984
      3 C3         22.6136  114.2002   51.5041 AD             0 LIG     -0.216162
      4 C4         19.9781  113.2168   51.7145 AE             0 LIG     -0.191448
      5 C5         18.6975  117.9954   51.1786 AF             0 LIG     -0.191448
      6 C6         19.2335  119.2475   51.5296 AH             0 LIG     -0.201273
      7 C7         21.4642  118.4716   50.8925 AI             0 LIG     -0.282378
      8 C8         21.5577  114.9080   50.8954 AJ             0 LIG     0.090825
      9 C9         20.9413  117.2018   50.5834 AK             0 LIG     0.090825
     10 C10        20.2332  114.4183   51.0289 AN             0 LIG     0.113170
     11 C11        19.5487  116.9720   50.7259 AO             0 LIG     0.113170
     12 C12        20.6151  119.4838   51.3830 AP             0 LIG     0.139586
     13 C13        25.5075  118.5394   47.1343 AQ             0 LIG     -0.327670
     14 C14        24.2563  118.6495   45.0273 AV             0 LIG     -0.327670
     15 C15        23.0267  117.2334   48.3870 AW             0 LIG     -0.018552
     16 C16        22.1396  116.0536   48.8322 AX             0 LIG     0.030051
     17 C17        23.3778  117.2590   46.8869 AY             0 LIG     0.155353
     18 N1         21.8026  116.1391   50.2593 AZ             0 LIG     -0.186524
     19 N2         24.1661  118.4664   46.4985 BB             0 LIG     0.134459
     20 S1         18.8880  115.3676   50.3975 BC             0 LIG     -0.184949
     21 CL1        21.2739  121.0172   51.8261 BD             0 LIG     -0.163674
     22 H1         23.1715  112.4710   52.6822 BF             0 LIG     0.167367
     23 H2         20.8384  111.6118   52.8740 BG             0 LIG     0.167367
     24 H3         23.6219  114.5829   51.4496 BH             0 LIG     0.144463
     25 H4         18.9640  112.8559   51.8074 BJ             0 LIG     0.182657
     26 H5         17.6404  117.7985   51.2849 BK             0 LIG     0.182657
     27 H6         18.5824  120.0241   51.9058 BL             0 LIG     0.185066
     28 H7         22.5217  118.6698   50.7906 BM             0 LIG     0.159917
     29 H8         26.1097  117.6608   46.8932 BN             0 LIG     0.163775
     30 H9         25.4381  118.6207   48.2211 BO             0 LIG     0.163775
     31 H10        26.0530  119.4216   46.7939 BP             0 LIG     0.163775
     32 H11        24.8272  117.8441   44.5600 BQ             0 LIG     0.163775
     33 H12        24.7546  119.5953   44.7894 BS             0 LIG     0.163775
     34 H13        23.2648  118.6822   44.5698 BT             0 LIG     0.163775
     35 H14        22.5295  118.1663   48.6618 BU             0 LIG     0.042423
     36 H15        23.9561  117.1780   48.9492 BV             0 LIG     0.042423
     37 H16        21.2234  116.0389   48.2353 BW             0 LIG     0.092460
     38 H17        22.6471  115.1069   48.6300 BX             0 LIG     0.092460
     39 H18        23.9189  116.3548   46.6098 BY             0 LIG     0.021392
     40 H19        22.4496  117.2409   46.3103 BZ             0 LIG     0.021392
     41 H20        23.6455  119.2647   46.8382 CB             0 LIG     0.237587
@<TRIPOS>BOND
        1  1  2  2
        2  1  3  1
        3  1  22  1
        4  2  4  1
        5  2  23  1
        6  3  8  2
        7  3  24  1
        8  4  10  2
        9  4  25  1
        10  5  6  1
        11  5  11  2
        12  5  26  1
        13  6  12  2
        14  6  27  1
        15  7  9  2
        16  7  12  1
        17  7  28  1
        18  8  10  1
        19  8  18  1
        20  9  11  1
        21  9  18  1
        22  10  20  1
        23  11  20  1
        24  12  21  1
        25  13  19  1
        26  13  29  1
        27  13  30  1
        28  13  31  1
        29  14  19  1
        30  14  32  1
        31  14  33  1
        32  14  34  1
        33  15  16  1
        34  15  17  1
        35  15  35  1
        36  15  36  1
        37  16  18  1
        38  16  37  1
        39  16  38  1
        40  17  19  1
        41  17  39  1
        42  17  40  1
        43  19  41  1
@<TRIPOS>SUBSTRUCTURE
       1 LIG             1 RESIDUE    0 **** ROOT      0

