@<TRIPOS>MOLECULE
LIG
41 43
SMALL
USER_CHARGES
@<TRIPOS>ATOM
      1 C1         22.3604  113.0050   52.2082 AA             0 LIG     -0.150100
      2 C2         20.5775  119.5547   51.1067 AB             0 LIG     -0.150100
      3 C3         21.0347  112.5733   52.4044 AD             0 LIG     -0.150100
      4 C4         19.1897  119.3284   51.1935 AE             0 LIG     -0.150100
      5 C5         22.6229  114.1595   51.4458 AF             0 LIG     -0.220762
      6 C6         21.4486  118.5038   50.7606 AH             0 LIG     -0.220762
      7 C7         19.9677  113.2854   51.8302 AI             0 LIG     -0.190531
      8 C8         18.6680  118.0494   50.9358 AJ             0 LIG     -0.190531
      9 C9         21.5587  114.9080   50.8904 AK             0 LIG     0.084657
     10 C10        20.9342  117.2152   50.5042 AN             0 LIG     0.084657
     11 C11        20.2303  114.4413   51.0678 AO             0 LIG     0.115853
     12 C12        19.5377  116.9918   50.6082 AP             0 LIG     0.115853
     13 C13        23.6230  118.2553   49.0238 AQ             0 LIG     -0.353988
     14 C14        24.8938  116.5972   46.2399 AV             0 LIG     -0.185375
     15 C15        23.0563  118.1939   46.3738 AW             0 LIG     -0.185375
     16 C16        22.4410  115.9288   48.9416 AX             0 LIG     0.002465
     17 C17        23.6294  116.8203   48.4257 AY             1 LIG     0.085935
     18 N1         21.8091  116.1420   50.2583 AZ             0 LIG     -0.190232
     19 N2         23.6065  116.9178   46.9161 BB             0 LIG     0.109280
     20 S1         18.8812  115.3659   50.3978 BC             0 LIG     -0.188456
     21 H1         23.1773  112.4800   52.6866 BD             0 LIG     0.166423
     22 H2         20.9763  120.5350   51.3293 BF             0 LIG     0.166423
     23 H3         20.8386  111.7174   53.0291 BG             0 LIG     0.166423
     24 H4         18.5277  120.1333   51.4777 BH             0 LIG     0.166423
     25 H5         23.6381  114.5130   51.3497 BJ             0 LIG     0.128375
     26 H6         22.5149  118.6727   50.7355 BK             0 LIG     0.128375
     27 H7         18.9486  112.9832   52.0214 BL             0 LIG     0.178440
     28 H8         17.6063  117.8701   51.0192 BM             0 LIG     0.178440
     29 H9         23.6158  118.2958   50.1069 BN             0 LIG     0.122803
     30 H10        22.7588  118.8237   48.6758 BO             0 LIG     0.122803
     31 H11        24.5254  118.8094   48.7519 BP             0 LIG     0.122803
     32 H12        25.6846  117.2795   46.5406 BQ             0 LIG     0.123915
     33 H13        24.7919  116.6811   45.1593 BS             0 LIG     0.123915
     34 H14        25.2327  115.5752   46.4136 BT             0 LIG     0.123915
     35 H15        23.6067  119.0571   46.7497 BU             0 LIG     0.123915
     36 H16        21.9978  118.3189   46.6109 BV             0 LIG     0.123915
     37 H17        23.1080  118.2083   45.2831 BW             0 LIG     0.123915
     38 H18        21.6473  115.8838   48.1959 BX             0 LIG     0.090289
     39 H19        22.8282  114.9212   49.0584 BY             0 LIG     0.090289
     40 H20        24.5594  116.3295   48.7122 BZ             0 LIG     0.141962
     41 H21        22.9632  116.2005   46.6216 CB             0 LIG     0.213953
@<TRIPOS>BOND
        1  1  3  2
        2  1  5  1
        3  1  21  1
        4  2  4  2
        5  2  6  1
        6  2  22  1
        7  3  7  1
        8  3  23  1
        9  4  8  1
        10  4  24  1
        11  5  9  2
        12  5  25  1
        13  6  10  2
        14  6  26  1
        15  7  11  2
        16  7  27  1
        17  8  12  2
        18  8  28  1
        19  9  11  1
        20  9  18  1
        21  10  12  1
        22  10  18  1
        23  11  20  1
        24  12  20  1
        25  13  17  1
        26  13  29  1
        27  13  30  1
        28  13  31  1
        29  14  19  1
        30  14  32  1
        31  14  33  1
        32  14  34  1
        33  15  19  1
        34  15  35  1
        35  15  36  1
        36  15  37  1
        37  16  17  1
        38  16  18  1
        39  16  38  1
        40  16  39  1
        41  17  19  1
        42  17  40  1
        43  19  41  1
@<TRIPOS>SUBSTRUCTURE
       1 LIG             1 RESIDUE    0 **** ROOT      0

