PMT1appR
                    3D
 Schrodinger Suite 2019-4.
 41 43  0  0  1  0            999 V2000
   22.3604  113.0050   52.2082 C   0  0  0  0  0  0
   20.5775  119.5547   51.1067 C   0  0  0  0  0  0
   21.0347  112.5733   52.4044 C   0  0  0  0  0  0
   19.1897  119.3284   51.1935 C   0  0  0  0  0  0
   22.6229  114.1595   51.4458 C   0  0  0  0  0  0
   21.4486  118.5038   50.7606 C   0  0  0  0  0  0
   19.9677  113.2854   51.8302 C   0  0  0  0  0  0
   18.6680  118.0494   50.9358 C   0  0  0  0  0  0
   21.5587  114.9080   50.8904 C   0  0  0  0  0  0
   20.9342  117.2152   50.5042 C   0  0  0  0  0  0
   20.2303  114.4413   51.0678 C   0  0  0  0  0  0
   19.5377  116.9918   50.6082 C   0  0  0  0  0  0
   23.6230  118.2553   49.0238 C   0  0  0  0  0  0
   24.8938  116.5972   46.2399 C   0  0  0  0  0  0
   23.0563  118.1939   46.3738 C   0  0  0  0  0  0
   22.4410  115.9288   48.9416 C   0  0  0  0  0  0
   23.6294  116.8203   48.4257 C   0  0  1  0  0  0
   21.8091  116.1420   50.2583 N   0  0  0  0  0  0
   23.6065  116.9178   46.9161 N   0  3  0  0  0  0
   18.8812  115.3659   50.3978 S   0  0  0  0  0  0
   23.1773  112.4800   52.6866 H   0  0  0  0  0  0
   20.9763  120.5350   51.3293 H   0  0  0  0  0  0
   20.8386  111.7174   53.0291 H   0  0  0  0  0  0
   18.5277  120.1333   51.4777 H   0  0  0  0  0  0
   23.6381  114.5130   51.3497 H   0  0  0  0  0  0
   22.5149  118.6727   50.7355 H   0  0  0  0  0  0
   18.9486  112.9832   52.0214 H   0  0  0  0  0  0
   17.6063  117.8701   51.0192 H   0  0  0  0  0  0
   23.6158  118.2958   50.1069 H   0  0  0  0  0  0
   22.7588  118.8237   48.6758 H   0  0  0  0  0  0
   24.5254  118.8094   48.7519 H   0  0  0  0  0  0
   25.6846  117.2795   46.5406 H   0  0  0  0  0  0
   24.7919  116.6811   45.1593 H   0  0  0  0  0  0
   25.2327  115.5752   46.4136 H   0  0  0  0  0  0
   23.6067  119.0571   46.7497 H   0  0  0  0  0  0
   21.9978  118.3189   46.6109 H   0  0  0  0  0  0
   23.1080  118.2083   45.2831 H   0  0  0  0  0  0
   21.6473  115.8838   48.1959 H   0  0  0  0  0  0
   22.8282  114.9212   49.0584 H   0  0  0  0  0  0
   24.5594  116.3295   48.7122 H   0  0  0  0  0  0
   22.9632  116.2005   46.6216 H   0  0  0  0  0  0
  1  3  2  0  0  0
  1  5  1  0  0  0
  1 21  1  0  0  0
  2  4  2  0  0  0
  2  6  1  0  0  0
  2 22  1  0  0  0
  3  7  1  0  0  0
  3 23  1  0  0  0
  4  8  1  0  0  0
  4 24  1  0  0  0
  5  9  2  0  0  0
  5 25  1  0  0  0
  6 10  2  0  0  0
  6 26  1  0  0  0
  7 11  2  0  0  0
  7 27  1  0  0  0
  8 12  2  0  0  0
  8 28  1  0  0  0
  9 11  1  0  0  0
  9 18  1  0  0  0
 10 12  1  0  0  0
 10 18  1  0  0  0
 11 20  1  0  0  0
 12 20  1  0  0  0
 13 17  1  0  0  0
 13 29  1  0  0  0
 13 30  1  0  0  0
 13 31  1  0  0  0
 14 19  1  0  0  0
 14 32  1  0  0  0
 14 33  1  0  0  0
 14 34  1  0  0  0
 15 19  1  0  0  0
 15 35  1  0  0  0
 15 36  1  0  0  0
 15 37  1  0  0  0
 16 17  1  0  0  0
 16 18  1  0  0  0
 16 38  1  0  0  0
 16 39  1  0  0  0
 17 19  1  0  0  0
 17 40  1  0  0  0
 19 41  1  0  0  0
M  CHG  1  19   1
M  END
> <i_m_stars>
0

> <s_m_entry_id>
642

> <s_m_Source_Path>
/home/emilio/Dropbox/SAMPL9-eglab/mCD/ligsdfs

> <s_m_Source_File>
PMT1appR.sdf

> <i_m_Source_File_Index>
1

> <r_epik_Ionization_Penalty>
  0.0045

> <r_epik_State_Penalty>
  0.0032

> <i_epik_Tot_Q>
1

> <s_m_job_name>
ligprep_4

> <i_f3d_flags>
0

$$$$
