@<TRIPOS>MOLECULE
LIG
41 43
SMALL
USER_CHARGES
@<TRIPOS>ATOM
      1 C1         22.3431  113.0081   52.2044 PA             0 LIG     -0.151978
      2 C2         20.4594  119.6136   50.7712 PB             0 LIG     -0.151978
      3 C3         21.0215  112.5489   52.2409 PD             0 LIG     -0.151978
      4 C4         19.0821  119.3712   50.6060 PE             0 LIG     -0.151978
      5 C5         22.6141  114.1547   51.4076 PF             0 LIG     -0.221382
      6 C6         21.3539  118.5830   50.6387 PH             0 LIG     -0.221382
      7 C7         19.9257  113.3097   51.6984 PI             0 LIG     -0.192007
      8 C8         18.6252  118.0774   50.4803 PJ             0 LIG     -0.192007
      9 C9         21.5635  114.9469   50.8443 PK             0 LIG     0.086899
     10 C10        20.9083  117.2079   50.4587 PN             0 LIG     0.086899
     11 C11        20.2313  114.4982   50.9937 PO             0 LIG     0.115779
     12 C12        19.5126  116.9677   50.5536 PP             0 LIG     0.115779
     13 C13        26.7740  118.0392   47.3356 PQ             0 LIG     -0.319173
     14 C14        25.3541  118.1398   45.2817 PV             0 LIG     -0.319173
     15 C15        23.7748  117.1210   48.7573 PW             0 LIG     -0.018118
     16 C16        22.5437  116.0214   48.9478 PX             0 LIG     0.036275
     17 C17        24.3079  117.1044   47.3034 PY             0 LIG     0.012268
     18 N1         21.8703  116.1685   50.2491 PZ             0 LIG     -0.191498
     19 N2         25.3589  118.2185   46.8029 QB             0 LIG     0.153200
     20 S1         18.8373  115.3362   50.4107 QC             0 LIG     -0.201542
     21 H1         23.0894  112.4080   52.7344 QD             0 LIG     0.160898
     22 H2         20.8020  120.6559   50.9364 QF             0 LIG     0.160898
     23 H3         20.7743  111.6867   52.8344 QG             0 LIG     0.160898
     24 H4         18.3722  120.2185   50.6387 QH             0 LIG     0.160898
     25 H5         23.5951  114.5374   51.3356 QJ             0 LIG     0.134456
     26 H6         22.4132  118.7112   50.7316 QK             0 LIG     0.134456
     27 H7         18.8962  112.9582   51.8705 QL             0 LIG     0.174337
     28 H8         17.5379  117.8773   50.3064 QM             0 LIG     0.174337
     29 H9         27.2659  117.0998   47.0052 QN             0 LIG     0.158404
     30 H10        26.6755  118.1794   48.4172 QO             0 LIG     0.158404
     31 H11        27.2747  118.8720   46.8732 QP             0 LIG     0.158404
     32 H12        24.7886  117.2313   44.9873 QQ             0 LIG     0.158404
     33 H13        26.3419  118.1819   44.8428 QS             0 LIG     0.158404
     34 H14        24.8152  119.0339   44.8703 QT             0 LIG     0.158404
     35 H15        23.3496  118.1400   48.9284 QU             0 LIG     0.041463
     36 H16        24.5075  117.0107   49.5377 QV             0 LIG     0.041463
     37 H17        21.7782  115.9080   48.1057 QW             0 LIG     0.085391
     38 H18        23.0937  115.0171   49.0824 QX             0 LIG     0.085391
     39 H19        24.8038  116.1103   47.1676 QY             0 LIG     0.073022
     40 H20        23.4460  117.2448   46.6953 QZ             0 LIG     0.073022
     41 H21        25.0572  119.1890   47.0844 RB             0 LIG     0.265740
@<TRIPOS>BOND
        1  1  3  2
        2  1  5  1
        3  1  21  1
        4  2  4  2
        5  2  6  1
        6  2  22  1
        7  3  7  1
        8  3  23  1
        9  4  8  1
        10  4  24  1
        11  5  9  2
        12  5  25  1
        13  6  10  2
        14  6  26  1
        15  7  11  2
        16  7  27  1
        17  8  12  2
        18  8  28  1
        19  9  11  1
        20  9  18  1
        21  10  12  1
        22  10  18  1
        23  11  20  1
        24  12  20  1
        25  13  19  1
        26  13  29  1
        27  13  30  1
        28  13  31  1
        29  14  19  1
        30  14  32  1
        31  14  33  1
        32  14  34  1
        33  15  16  1
        34  15  17  1
        35  15  35  1
        36  15  36  1
        37  16  18  1
        38  16  37  1
        39  16  38  1
        40  17  19  1
        41  17  39  1
        42  17  40  1
        43  19  41  1
@<TRIPOS>SUBSTRUCTURE
       1 LIG             1 RESIDUE    0 **** ROOT      0

