PMZ1appR
                    3D
 Schrodinger Suite 2019-4.
 41 43  0  0  1  0            999 V2000
   22.3228  112.6882   51.6425  C    0  0  0  0  0  0
   20.6004  119.4854   51.3853  C    0  0  0  0  0  0
   20.9894  112.2633   51.6613  C    0  0  0  0  0  0
   19.2106  119.3088   51.2429  C    0  0  0  0  0  0
   22.5999  113.9424   51.0317  C    0  0  0  0  0  0
   21.4552  118.4678   51.0483  C    0  0  0  0  0  0
   19.8987  113.1306   51.2977  C    0  0  0  0  0  0
   18.7075  118.0652   50.9285  C    0  0  0  0  0  0
   21.5545  114.8429   50.6508  C    0  0  0  0  0  0
   20.9586  117.1526   50.6667  C    0  0  0  0  0  0
   20.2153  114.4102   50.7830  C    0  0  0  0  0  0
   19.5606  116.9361   50.7818  C    0  0  0  0  0  0
   26.7231  118.3331   47.4685  C    0  0  0  0  0  0
   25.2289  118.8052   45.5219  C    0  0  0  0  0  0
   23.7529  117.2719   48.8510  C    0  0  0  0  0  0
   22.4950  116.1879   48.9135  C    0  0  0  0  0  0
   24.2286  117.4799   47.3919  C    0  0  0  0  0  0
   21.8776  116.1372   50.2494  N    0  0  0  0  0  0
   25.2950  118.6336   47.0340  N    0  3  0  0  0  0
   18.8277  115.3679   50.4051  S    0  0  0  0  0  0
   23.0692  111.9904   52.0350  H    0  0  0  0  0  0
   20.9828  120.4774   51.7027  H    0  0  0  0  0  0
   20.7375  111.3222   52.1169  H    0  0  0  0  0  0
   18.5304  120.1573   51.4437  H    0  0  0  0  0  0
   23.5893  114.3064   50.9803  H    0  0  0  0  0  0
   22.5209  118.5518   51.1147  H    0  0  0  0  0  0
   18.8658  112.7822   51.4550  H    0  0  0  0  0  0
   17.6083  117.9243   50.7718  H    0  0  0  0  0  0
   27.1711  117.4482   46.9688  H    0  0  0  0  0  0
   26.6711  118.2968   48.5618  H    0  0  0  0  0  0
   27.2323  119.2173   47.1263  H    0  0  0  0  0  0
   24.6233  117.9720   45.1086  H    0  0  0  0  0  0
   26.1998  118.8932   45.0532  H    0  0  0  0  0  0
   24.7038  119.7681   45.2851  H    0  0  0  0  0  0
   23.3679  118.2597   49.2037  H    0  0  0  0  0  0
   24.5112  117.0165   49.5705  H    0  0  0  0  0  0
   21.6943  116.2337   48.0982  H    0  0  0  0  0  0
   23.0170  115.1614   48.8590  H    0  0  0  0  0  0
   24.6863  116.5091   47.0749  H    0  0  0  0  0  0
   23.3488  117.7401   46.8528  H    0  0  0  0  0  0
   25.0361  119.5523   47.4824  H    0  0  0  0  0  0
  1  3  2  0  0  0
  1  5  1  0  0  0
  1 21  1  0  0  0
  2  4  2  0  0  0
  2  6  1  0  0  0
  2 22  1  0  0  0
  3  7  1  0  0  0
  3 23  1  0  0  0
  4  8  1  0  0  0
  4 24  1  0  0  0
  5  9  2  0  0  0
  5 25  1  0  0  0
  6 10  2  0  0  0
  6 26  1  0  0  0
  7 11  2  0  0  0
  7 27  1  0  0  0
  8 12  2  0  0  0
  8 28  1  0  0  0
  9 11  1  0  0  0
  9 18  1  0  0  0
 10 12  1  0  0  0
 10 18  1  0  0  0
 11 20  1  0  0  0
 12 20  1  0  0  0
 13 19  1  0  0  0
 13 29  1  0  0  0
 13 30  1  0  0  0
 13 31  1  0  0  0
 14 19  1  0  0  0
 14 32  1  0  0  0
 14 33  1  0  0  0
 14 34  1  0  0  0
 15 16  1  0  0  0
 15 17  1  0  0  0
 15 35  1  0  0  0
 15 36  1  0  0  0
 16 18  1  0  0  0
 16 37  1  0  0  0
 16 38  1  0  0  0
 17 19  1  0  0  0
 17 39  1  0  0  0
 17 40  1  0  0  0
 19 41  1  0  0  0
M  CHG  1  19   1
M  END
> <i_m_stars>
0

> <s_m_entry_id>
262

> <s_m_Source_Path>
/home/emilio/Dropbox/SAMPL9-eglab/mCD/ligsdfs

> <s_m_Source_File>
PMZ1appR.sdf

> <i_m_Source_File_Index>
1

> <r_epik_Ionization_Penalty>
  0.0034

> <r_epik_State_Penalty>
  0.0024

> <i_epik_Tot_Q>
1

> <s_m_job_name>
ligprep_4

> <i_f3d_flags>
0

$$$$

