@<TRIPOS>MOLECULE
LIG
52 55
SMALL
USER_CHARGES
@<TRIPOS>ATOM
      1 C1         22.3621  112.9961   52.2137 AA             0 LIG     -0.151741
      2 C2         21.0371  112.5534   52.3772 AB             0 LIG     -0.151741
      3 C3         22.6310  114.1622   51.4691 AD             0 LIG     -0.220252
      4 C4         19.9814  113.2724   51.7927 AE             0 LIG     -0.194616
      5 C5         18.6396  118.0646   50.7953 AF             0 LIG     -0.194616
      6 C6         19.1306  119.3646   51.0125 AH             0 LIG     -0.194616
      7 C7         21.4118  118.5397   50.7413 AI             0 LIG     -0.276550
      8 C8         21.5745  114.9111   50.8956 AJ             0 LIG     0.084603
      9 C9         20.9317  117.2352   50.4831 AK             0 LIG     0.084603
     10 C10        20.2445  114.4463   51.0586 AN             0 LIG     0.112404
     11 C11        19.5330  117.0055   50.5476 AO             0 LIG     0.112404
     12 C12        20.5190  119.5995   50.9950 AP             0 LIG     0.163041
     13 C13        25.2301  119.5520   47.4037 AQ             0 LIG     -0.029878
     14 C14        24.8475  119.6488   45.9198 AV             0 LIG     -0.034345
     15 C15        25.5435  118.0934   47.7661 AW             0 LIG     -0.054555
     16 C16        23.6999  118.6840   45.5704 AX             0 LIG     0.011138
     17 C17        24.3612  117.1489   47.4371 AY             1 LIG     0.149935
     18 C18        23.0126  116.3059   45.4994 AZ             0 LIG     -0.244054
     19 C19        22.8543  121.0944   51.8279 BB             0 LIG     -0.160589
     20 C20        23.1300  117.3009   48.3816 BC             0 LIG     -0.033239
     21 C21        23.0973  116.3081   49.5736 BD             0 LIG     0.039575
     22 N1         21.8016  116.1492   50.2531 BF             0 LIG     -0.187004
     23 N2         24.0143  117.2857   45.9850 BG             1 LIG     -0.070769
     24 S1         18.8871  115.3675   50.3975 BH             0 LIG     -0.197900
     25 S2         21.1192  121.2294   51.3145 BJ             0 LIG     -0.258446
     26 H1         23.1710  112.4614   52.6925 BK             0 LIG     0.161610
     27 H2         20.8293  111.6807   52.9792 BL             0 LIG     0.161610
     28 H3         23.6548  114.4979   51.4037 BM             0 LIG     0.136076
     29 H4         18.9616  112.9521   51.9410 BN             0 LIG     0.176324
     30 H5         17.5803  117.8670   50.8572 BO             0 LIG     0.176324
     31 H6         18.4465  120.1690   51.2412 BP             0 LIG     0.176324
     32 H7         22.4723  118.7138   50.7900 BQ             0 LIG     0.140791
     33 H8         26.0988  120.1835   47.6077 BS             0 LIG     0.046381
     34 H9         24.4207  119.9322   48.0313 BT             0 LIG     0.046381
     35 H10        24.5565  120.6748   45.6809 BU             0 LIG     0.049941
     36 H11        25.7242  119.4349   45.3034 BV             0 LIG     0.049941
     37 H12        26.4266  117.7763   47.2083 BW             0 LIG     0.046927
     38 H13        25.8384  118.0179   48.8149 BX             0 LIG     0.046927
     39 H14        22.7731  119.0274   46.0310 BY             0 LIG     0.081886
     40 H15        23.5363  118.7164   44.4920 BZ             0 LIG     0.081886
     41 H16        24.7399  116.1343   47.5828 CB             0 LIG     0.038290
     42 H17        22.0207  116.5077   45.9014 CI             0 LIG     0.142123
     43 H18        23.2957  115.2883   45.7717 CJ             0 LIG     0.142123
     44 H19        22.9443  116.3448   44.4113 CK             0 LIG     0.142123
     45 H20        23.2049  122.0582   52.1968 CM             0 LIG     0.110774
     46 H21        23.4816  120.8025   50.9868 CN             0 LIG     0.110774
     47 H22        22.9679  120.3610   52.6270 CT             0 LIG     0.110774
     48 H23        23.1005  118.3148   48.7669 CW             0 LIG     0.042019
     49 H24        22.2141  117.1734   47.7987 DA             0 LIG     0.042019
     50 H25        23.3635  115.3239   49.1806 DB             0 LIG     0.082888
     51 H26        23.8514  116.5778   50.3126 DC             0 LIG     0.082888
     52 H27        24.8705  117.0574   45.4992 DD             0 LIG     0.271082
@<TRIPOS>BOND
        1  1  2  2
        2  1  3  1
        3  1  26  1
        4  2  4  1
        5  2  27  1
        6  3  8  2
        7  3  28  1
        8  4  10  2
        9  4  29  1
        10  5  6  1
        11  5  11  2
        12  5  30  1
        13  6  12  2
        14  6  31  1
        15  7  9  2
        16  7  12  1
        17  7  32  1
        18  8  10  1
        19  8  22  1
        20  9  11  1
        21  9  22  1
        22  10  24  1
        23  11  24  1
        24  12  25  1
        25  13  14  1
        26  13  15  1
        27  13  33  1
        28  13  34  1
        29  14  16  1
        30  14  35  1
        31  14  36  1
        32  15  17  1
        33  15  37  1
        34  15  38  1
        35  16  23  1
        36  16  39  1
        37  16  40  1
        38  17  20  1
        39  17  23  1
        40  17  41  1
        41  18  23  1
        42  18  42  1
        43  18  43  1
        44  18  44  1
        45  19  25  1
        46  19  45  1
        47  19  46  1
        48  19  47  1
        49  20  21  1
        50  20  48  1
        51  20  49  1
        52  21  22  1
        53  21  50  1
        54  21  51  1
        55  23  52  1
@<TRIPOS>SUBSTRUCTURE
       1 LIG             1 RESIDUE    0 **** ROOT      0

