TDZNS1appR
                    3D
 Schrodinger Suite 2019-4.
 52 55  0  0  1  0            999 V2000
   22.3621  112.9961   52.2137 C   0  0  0  0  0  0
   21.0371  112.5534   52.3772 C   0  0  0  0  0  0
   22.6310  114.1622   51.4691 C   0  0  0  0  0  0
   19.9814  113.2724   51.7927 C   0  0  0  0  0  0
   18.6396  118.0646   50.7953 C   0  0  0  0  0  0
   19.1306  119.3646   51.0125 C   0  0  0  0  0  0
   21.4118  118.5397   50.7413 C   0  0  0  0  0  0
   21.5745  114.9111   50.8956 C   0  0  0  0  0  0
   20.9317  117.2352   50.4831 C   0  0  0  0  0  0
   20.2445  114.4463   51.0586 C   0  0  0  0  0  0
   19.5330  117.0055   50.5476 C   0  0  0  0  0  0
   20.5190  119.5995   50.9950 C   0  0  0  0  0  0
   25.2301  119.5520   47.4037 C   0  0  0  0  0  0
   24.8475  119.6488   45.9198 C   0  0  0  0  0  0
   25.5435  118.0934   47.7661 C   0  0  0  0  0  0
   23.6999  118.6840   45.5704 C   0  0  0  0  0  0
   24.3612  117.1489   47.4371 C   0  0  1  0  0  0
   23.0126  116.3059   45.4994 C   0  0  0  0  0  0
   22.8543  121.0944   51.8279 C   0  0  0  0  0  0
   23.1300  117.3009   48.3816 C   0  0  0  0  0  0
   23.0973  116.3081   49.5736 C   0  0  0  0  0  0
   21.8016  116.1492   50.2531 N   0  0  0  0  0  0
   24.0143  117.2857   45.9850 N   0  3  1  0  0  0
   18.8871  115.3675   50.3975 S   0  0  0  0  0  0
   21.1192  121.2294   51.3145 S   0  0  0  0  0  0
   23.1710  112.4614   52.6925 H   0  0  0  0  0  0
   20.8293  111.6807   52.9792 H   0  0  0  0  0  0
   23.6548  114.4979   51.4037 H   0  0  0  0  0  0
   18.9616  112.9521   51.9410 H   0  0  0  0  0  0
   17.5803  117.8670   50.8572 H   0  0  0  0  0  0
   18.4465  120.1690   51.2412 H   0  0  0  0  0  0
   22.4723  118.7138   50.7900 H   0  0  0  0  0  0
   26.0988  120.1835   47.6077 H   0  0  0  0  0  0
   24.4207  119.9322   48.0313 H   0  0  0  0  0  0
   24.5565  120.6748   45.6809 H   0  0  0  0  0  0
   25.7242  119.4349   45.3034 H   0  0  0  0  0  0
   26.4266  117.7763   47.2083 H   0  0  0  0  0  0
   25.8384  118.0179   48.8149 H   0  0  0  0  0  0
   22.7731  119.0274   46.0310 H   0  0  0  0  0  0
   23.5363  118.7164   44.4920 H   0  0  0  0  0  0
   24.7399  116.1343   47.5828 H   0  0  0  0  0  0
   22.0207  116.5077   45.9014 H   0  0  0  0  0  0
   23.2957  115.2883   45.7717 H   0  0  0  0  0  0
   22.9443  116.3448   44.4113 H   0  0  0  0  0  0
   23.2049  122.0582   52.1968 H   0  0  0  0  0  0
   23.4816  120.8025   50.9868 H   0  0  0  0  0  0
   22.9679  120.3610   52.6270 H   0  0  0  0  0  0
   23.1005  118.3148   48.7669 H   0  0  0  0  0  0
   22.2141  117.1734   47.7987 H   0  0  0  0  0  0
   23.3635  115.3239   49.1806 H   0  0  0  0  0  0
   23.8514  116.5778   50.3126 H   0  0  0  0  0  0
   24.8705  117.0574   45.4992 H   0  0  0  0  0  0
  1  2  2  0  0  0
  1  3  1  0  0  0
  1 26  1  0  0  0
  2  4  1  0  0  0
  2 27  1  0  0  0
  3  8  2  0  0  0
  3 28  1  0  0  0
  4 10  2  0  0  0
  4 29  1  0  0  0
  5  6  2  0  0  0
  5 11  1  0  0  0
  5 30  1  0  0  0
  6 12  1  0  0  0
  6 31  1  0  0  0
  7  9  1  0  0  0
  7 12  2  0  0  0
  7 32  1  0  0  0
  8 10  1  0  0  0
  8 22  1  0  0  0
  9 11  2  0  0  0
  9 22  1  0  0  0
 10 24  1  0  0  0
 11 24  1  0  0  0
 12 25  1  0  0  0
 13 14  1  0  0  0
 13 15  1  0  0  0
 13 33  1  0  0  0
 13 34  1  0  0  0
 14 16  1  0  0  0
 14 35  1  0  0  0
 14 36  1  0  0  0
 15 17  1  0  0  0
 15 37  1  0  0  0
 15 38  1  0  0  0
 16 23  1  0  0  0
 16 39  1  0  0  0
 16 40  1  0  0  0
 17 20  1  0  0  0
 17 23  1  0  0  0
 17 41  1  0  0  0
 18 23  1  0  0  0
 18 42  1  0  0  0
 18 43  1  0  0  0
 18 44  1  0  0  0
 19 25  1  0  0  0
 19 45  1  0  0  0
 19 46  1  0  0  0
 19 47  1  0  0  0
 20 21  1  0  0  0
 20 48  1  0  0  0
 20 49  1  0  0  0
 21 22  1  0  0  0
 21 50  1  0  0  0
 21 51  1  0  0  0
 23 52  1  0  0  0
M  CHG  1  23   1
M  END
> <i_m_stars>
0

> <s_m_entry_id>
648

> <s_m_Source_Path>
/home/emilio/Dropbox/SAMPL9-eglab/mCD/ligsdfs

> <s_m_Source_File>
TDZNS1appR.sdf

> <i_m_Source_File_Index>
1

> <r_epik_Ionization_Penalty>
  0.0017

> <r_epik_State_Penalty>
  0.0011

> <i_epik_Tot_Q>
1

> <s_m_job_name>
ligprep_4

> <i_f3d_flags>
0

$$$$
