@<TRIPOS>MOLECULE
LIG
52 55
SMALL
USER_CHARGES
@<TRIPOS>ATOM
      1 C1         22.3658  112.9979   52.2130 AA             0 LIG     -0.151259
      2 C2         21.0409  112.5540   52.3771 AB             0 LIG     -0.151259
      3 C3         22.6348  114.1575   51.4572 AD             0 LIG     -0.219304
      4 C4         19.9819  113.2678   51.7877 AE             0 LIG     -0.194592
      5 C5         18.6567  118.0675   50.8771 AF             0 LIG     -0.194592
      6 C6         19.1650  119.3490   51.1453 AH             0 LIG     -0.194592
      7 C7         21.4344  118.5088   50.8337 AI             0 LIG     -0.277127
      8 C8         21.5758  114.9021   50.8850 AJ             0 LIG     0.085655
      9 C9         20.9358  117.2274   50.5270 AK             0 LIG     0.085655
     10 C10        20.2444  114.4380   51.0513 AN             0 LIG     0.112307
     11 C11        19.5399  117.0068   50.5901 AO             0 LIG     0.112307
     12 C12        20.5554  119.5671   51.1406 AP             0 LIG     0.162844
     13 C13        25.8956  118.5287   45.9770 AQ             0 LIG     -0.032521
     14 C14        25.2414  118.1316   44.6516 AV             0 LIG     -0.034488
     15 C15        24.8383  118.5970   47.0864 AW             0 LIG     -0.055761
     16 C16        24.4757  116.8106   44.8073 AX             0 LIG     -0.006430
     17 C17        24.0463  117.2730   47.2208 AY             1 LIG     0.133288
     18 C18        22.6130  115.6683   45.9186 AZ             0 LIG     -0.176010
     19 C19        19.7601  122.2357   51.9041 BB             0 LIG     -0.159669
     20 C20        22.9562  117.3542   48.3280 BC             0 LIG     -0.036260
     21 C21        23.0193  116.2855   49.4530 BD             0 LIG     0.036576
     22 N1         21.7953  116.1423   50.2565 BF             0 LIG     -0.187743
     23 N2         23.4582  116.8903   45.8919 BG             2 LIG     -0.192054
     24 S1         18.8897  115.3725   50.3947 BH             0 LIG     -0.197945
     25 S2         21.1841  121.1636   51.5510 BJ             0 LIG     -0.259338
     26 H1         23.1728  112.4726   52.7021 BK             0 LIG     0.162335
     27 H2         20.8335  111.6889   52.9914 BL             0 LIG     0.162335
     28 H3         23.6555  114.5007   51.3878 BM             0 LIG     0.137375
     29 H4         18.9645  112.9480   51.9422 BN             0 LIG     0.176356
     30 H5         17.5967  117.8782   50.9377 BO             0 LIG     0.176356
     31 H6         18.4907  120.1506   51.4165 BP             0 LIG     0.176356
     32 H7         22.4997  118.6658   50.8825 BQ             0 LIG     0.141006
     33 H8         26.6710  117.8060   46.2414 BS             0 LIG     0.046484
     34 H9         26.4014  119.4908   45.8757 BT             0 LIG     0.046484
     35 H10        24.5733  118.9271   44.3155 BU             0 LIG     0.051372
     36 H11        26.0031  118.0308   43.8747 BV             0 LIG     0.051372
     37 H12        25.3468  118.8322   48.0232 BW             0 LIG     0.048966
     38 H13        24.1591  119.4289   46.8939 BX             0 LIG     0.048966
     39 H14        23.9909  116.5761   43.8586 BY             0 LIG     0.095743
     40 H15        25.1742  115.9982   45.0111 BZ             0 LIG     0.095743
     41 H16        24.7573  116.4967   47.5133 CB             0 LIG     0.086415
     42 H17        23.1729  114.8063   46.2821 CI             0 LIG     0.129026
     43 H18        22.2430  115.4315   44.9201 CJ             0 LIG     0.129026
     44 H19        21.7303  115.7953   46.5460 CK             0 LIG     0.129026
     45 H20        20.0774  123.2778   51.9529 CM             0 LIG     0.110256
     46 H21        19.3112  121.9713   52.8614 CN             0 LIG     0.110256
     47 H22        19.0030  122.1459   51.1232 CT             0 LIG     0.110256
     48 H23        23.0181  118.3419   48.7779 CW             0 LIG     0.037623
     49 H24        21.9725  117.2898   47.8541 DA             0 LIG     0.037623
     50 H25        23.1972  115.3119   48.9885 DB             0 LIG     0.084613
     51 H26        23.8614  116.4813   50.1162 DC             0 LIG     0.084613
     52 H27        22.8431  117.6507   45.6334 DD             0 LIG     0.326325
@<TRIPOS>BOND
        1  1  2  2
        2  1  3  1
        3  1  26  1
        4  2  4  1
        5  2  27  1
        6  3  8  2
        7  3  28  1
        8  4  10  2
        9  4  29  1
        10  5  6  1
        11  5  11  2
        12  5  30  1
        13  6  12  2
        14  6  31  1
        15  7  9  2
        16  7  12  1
        17  7  32  1
        18  8  10  1
        19  8  22  1
        20  9  11  1
        21  9  22  1
        22  10  24  1
        23  11  24  1
        24  12  25  1
        25  13  14  1
        26  13  15  1
        27  13  33  1
        28  13  34  1
        29  14  16  1
        30  14  35  1
        31  14  36  1
        32  15  17  1
        33  15  37  1
        34  15  38  1
        35  16  23  1
        36  16  39  1
        37  16  40  1
        38  17  20  1
        39  17  23  1
        40  17  41  1
        41  18  23  1
        42  18  42  1
        43  18  43  1
        44  18  44  1
        45  19  25  1
        46  19  45  1
        47  19  46  1
        48  19  47  1
        49  20  21  1
        50  20  48  1
        51  20  49  1
        52  21  22  1
        53  21  50  1
        54  21  51  1
        55  23  52  1
@<TRIPOS>SUBSTRUCTURE
       1 LIG             1 RESIDUE    0 **** ROOT      0

