@<TRIPOS>MOLECULE
LIG
50 53
SMALL
USER_CHARGES
@<TRIPOS>ATOM
      1 C1         22.3371  113.0039   52.2062 AA             0 LIG     -0.146946
      2 C2         21.0235  112.6138   52.4348 AB             0 LIG     -0.146946
      3 C3         22.6041  114.1523   51.4631 AD             0 LIG     -0.213882
      4 C4         19.9810  113.3634   51.9016 AE             0 LIG     -0.189563
      5 C5         18.6190  118.0063   50.8022 AF             0 LIG     -0.189563
      6 C6         19.0508  119.3267   50.8406 AH             0 LIG     -0.186283
      7 C7         21.2993  118.5834   50.4034 AI             0 LIG     -0.267664
      8 C8         21.5699  114.9486   50.9258 AJ             0 LIG     0.094519
      9 C9         20.8998  117.2313   50.3833 AK             0 LIG     0.094519
     10 C10        20.2455  114.5088   51.1466 AN             0 LIG     0.116195
     11 C11        19.5238  116.9709   50.5639 AO             0 LIG     0.116195
     12 C12        20.3970  119.6281   50.6302 AP             0 LIG     -0.069395
     13 C13        24.0620  118.2099   44.9052 AQ             0 LIG     -0.041121
     14 C14        25.8773  117.8810   46.5031 AV             0 LIG     -0.041121
     15 C15        24.8784  119.3054   44.2183 AW             0 LIG     0.063286
     16 C16        26.6761  118.9748   45.7883 AX             0 LIG     0.063286
     17 C17        23.4958  117.1837   48.5249 AY             0 LIG     -0.016690
     18 C18        22.5367  116.0349   48.9936 AZ             0 LIG     0.028631
     19 C19        23.5753  117.1037   47.0041 BB             0 LIG     -0.059139
     20 N1         21.8038  116.1619   50.2493 BC             0 LIG     -0.187888
     21 N2         24.4225  118.1128   46.3403 BD             0 LIG     -0.035261
     22 N3         26.3066  119.0600   44.3784 BF             0 LIG     -0.795699
     23 F1         21.4722  121.3586   49.4768 BG             0 LIG     -0.251326
     24 F2         21.8094  121.2141   51.6117 BH             0 LIG     -0.251326
     25 F3         19.9222  121.9533   50.8606 BJ             0 LIG     -0.251326
     26 S1         18.8897  115.3429   50.4126 BK             0 LIG     -0.162784
     27 C20        20.9002  121.0707   50.6466 BL             0 LIG     0.697269
     28 H1         23.1512  112.4200   52.6097 BM             0 LIG     0.171877
     29 H2         20.8131  111.7256   53.0124 BN             0 LIG     0.171877
     30 H3         23.6433  114.4059   51.3304 BO             0 LIG     0.150837
     31 H4         18.9626  113.0395   52.0606 BP             0 LIG     0.186066
     32 H5         17.5691  117.7902   50.9385 BQ             0 LIG     0.186066
     33 H6         18.3283  120.1094   51.0199 BS             0 LIG     0.189607
     34 H7         22.3264  118.8637   50.2445 BT             0 LIG     0.149674
     35 H8         23.0083  118.4385   44.8031 BU             0 LIG     0.093433
     36 H9         24.2063  117.2549   44.4119 BV             0 LIG     0.093433
     37 H10        26.1541  116.9014   46.1313 BW             0 LIG     0.093433
     38 H11        26.1366  117.8920   47.5516 BX             0 LIG     0.093433
     39 H12        24.6381  119.3507   43.1543 BY             0 LIG     0.105981
     40 H13        24.6235  120.2868   44.6229 BZ             0 LIG     0.105981
     41 H14        26.5181  119.9430   46.2662 CB             0 LIG     0.105981
     42 H15        27.7458  118.7793   45.8644 CI             0 LIG     0.105981
     43 H16        23.0984  118.1515   48.8361 CJ             0 LIG     0.044237
     44 H17        24.4648  117.2200   48.9956 CK             0 LIG     0.044237
     45 H18        21.8835  115.7307   48.1660 CM             0 LIG     0.093748
     46 H19        23.1674  115.1586   49.1840 CN             0 LIG     0.093748
     47 H20        23.9047  116.1084   46.7232 CT             0 LIG     0.094892
     48 H21        22.5565  117.2073   46.6543 CW             0 LIG     0.094892
     49 H22        26.6682  118.2947   43.8064 DA             0 LIG     0.419755
     50 H23        24.2211  119.0135   46.7396 DB             0 LIG     0.340852
@<TRIPOS>BOND
        1  1  2  2
        2  1  3  1
        3  1  28  1
        4  2  4  1
        5  2  29  1
        6  3  8  2
        7  3  30  1
        8  4  10  2
        9  4  31  1
        10  5  6  1
        11  5  11  2
        12  5  32  1
        13  6  12  2
        14  6  33  1
        15  7  9  2
        16  7  12  1
        17  7  34  1
        18  8  10  1
        19  8  20  1
        20  9  11  1
        21  9  20  1
        22  10  26  1
        23  11  26  1
        24  12  27  1
        25  13  15  1
        26  13  21  1
        27  13  35  1
        28  13  36  1
        29  14  16  1
        30  14  21  1
        31  14  37  1
        32  14  38  1
        33  15  22  1
        34  15  39  1
        35  15  40  1
        36  16  22  1
        37  16  41  1
        38  16  42  1
        39  17  18  1
        40  17  19  1
        41  17  43  1
        42  17  44  1
        43  18  20  1
        44  18  45  1
        45  18  46  1
        46  19  21  1
        47  19  47  1
        48  19  48  1
        49  21  50  1
        50  22  49  1
        51  23  27  1
        52  24  27  1
        53  25  27  1
@<TRIPOS>SUBSTRUCTURE
       1 LIG             1 RESIDUE    0 **** ROOT      0

