@<TRIPOS>MOLECULE
LIG
50 53
SMALL
USER_CHARGES
@<TRIPOS>ATOM
      1 C1         22.3438  112.9715   52.1502 AA             0 LIG     -0.148793
      2 C2         21.0307  112.5789   52.3793 AB             0 LIG     -0.148793
      3 C3         22.6086  114.1324   51.4256 AD             0 LIG     -0.214109
      4 C4         19.9864  113.3384   51.8645 AE             0 LIG     -0.192215
      5 C5         18.5928  118.0343   50.4519 AF             0 LIG     -0.192215
      6 C6         19.0195  119.3532   50.3472 AH             0 LIG     -0.190417
      7 C7         21.2848  118.5798   50.0922 AI             0 LIG     -0.264320
      8 C8         21.5732  114.9371   50.9074 AJ             0 LIG     0.095370
      9 C9         20.8892  117.2309   50.2166 AK             0 LIG     0.095370
     10 C10        20.2488  114.4955   51.1266 AN             0 LIG     0.116137
     11 C11        19.5089  116.9838   50.3769 AO             0 LIG     0.116137
     12 C12        20.3722  119.6373   50.1559 AP             0 LIG     -0.071581
     13 C13        24.5271  118.6819   45.1597 AQ             0 LIG     0.037365
     14 C14        25.8817  118.6146   47.1154 AV             0 LIG     0.037365
     15 C15        25.1555  120.0155   44.7590 AW             0 LIG     0.086222
     16 C16        26.5929  119.9248   46.7313 AX             0 LIG     0.086222
     17 C17        23.3663  117.3971   48.4304 AY             0 LIG     0.011333
     18 C18        22.6038  116.1696   49.0551 AZ             0 LIG     0.026484
     19 C19        23.6734  117.4396   46.9403 BB             0 LIG     0.037611
     20 N1         21.8228  116.1649   50.2461 BC             0 LIG     -0.178062
     21 N2         24.4868  118.6229   46.6108 BD             0 LIG     -0.528710
     22 N3         26.5444  120.0994   45.2671 BF             0 LIG     -0.527743
     23 F1         21.8469  121.2932   50.9194 BG             0 LIG     -0.255693
     24 F2         19.9107  121.9735   50.2455 BH             0 LIG     -0.255693
     25 F3         21.3644  121.2690   48.8081 BJ             0 LIG     -0.255693
     26 S1         18.8900  115.3437   50.4122 BK             0 LIG     -0.174420
     27 C20        20.8744  121.0752   50.0328 BL             0 LIG     0.695255
     28 H1         23.1593  112.3795   52.5383 BM             0 LIG     0.167075
     29 H2         20.8229  111.6811   52.9425 BN             0 LIG     0.167075
     30 H3         23.6464  114.3819   51.2873 BO             0 LIG     0.157041
     31 H4         18.9682  113.0135   52.0240 BP             0 LIG     0.180382
     32 H5         17.5393  117.8291   50.5750 BQ             0 LIG     0.180382
     33 H6         18.2888  120.1464   50.4042 BS             0 LIG     0.183084
     34 H7         22.3204  118.8456   49.9544 BT             0 LIG     0.171935
     35 H8         23.5011  118.6371   44.7902 BU             0 LIG     0.086347
     36 H9         25.0514  117.8129   44.7492 BV             0 LIG     0.086347
     37 H10        26.4498  117.7446   46.7858 BW             0 LIG     0.086347
     38 H11        25.8970  118.5581   48.1931 BX             0 LIG     0.086347
     39 H12        25.1415  120.0987   43.6781 BY             0 LIG     0.119217
     40 H13        24.5525  120.8333   45.1605 BZ             0 LIG     0.119217
     41 H14        26.1237  120.7742   47.2439 CB             0 LIG     0.119217
     42 H15        27.6358  119.9113   47.0645 CI             0 LIG     0.119217
     43 H16        23.1262  118.3529   48.8885 CJ             0 LIG     0.035265
     44 H17        24.3902  117.2747   48.5698 CK             0 LIG     0.035265
     45 H18        22.0947  115.6317   48.2524 CM             0 LIG     0.085093
     46 H19        23.4266  115.5200   49.3661 CN             0 LIG     0.085093
     47 H20        24.2143  116.5259   46.6708 CT             0 LIG     0.068063
     48 H21        22.7318  117.4083   46.4030 CW             0 LIG     0.068063
     49 H22        27.0885  119.3558   44.8435 DA             0 LIG     0.375757
     50 H23        26.9283  121.0018   45.0258 DB             0 LIG     0.375757
@<TRIPOS>BOND
        1  1  2  2
        2  1  3  1
        3  1  28  1
        4  2  4  1
        5  2  29  1
        6  3  8  2
        7  3  30  1
        8  4  10  2
        9  4  31  1
        10  5  6  1
        11  5  11  2
        12  5  32  1
        13  6  12  2
        14  6  33  1
        15  7  9  2
        16  7  12  1
        17  7  34  1
        18  8  10  1
        19  8  20  1
        20  9  11  1
        21  9  20  1
        22  10  26  1
        23  11  26  1
        24  12  27  1
        25  13  15  1
        26  13  21  1
        27  13  35  1
        28  13  36  1
        29  14  16  1
        30  14  21  1
        31  14  37  1
        32  14  38  1
        33  15  22  1
        34  15  39  1
        35  15  40  1
        36  16  22  1
        37  16  41  1
        38  16  42  1
        39  17  18  1
        40  17  19  1
        41  17  43  1
        42  17  44  1
        43  18  20  1
        44  18  45  1
        45  18  46  1
        46  19  21  1
        47  19  47  1
        48  19  48  1
        49  22  49  1
        50  22  50  1
        51  23  27  1
        52  24  27  1
        53  25  27  1
@<TRIPOS>SUBSTRUCTURE
       1 LIG             1 RESIDUE    0 **** ROOT      0

