bCDH26DM
                    3D

189196  0  0  1  0            999 V2000
   21.6937  113.2206   45.9006  C    0  0  2  0  0  0
   21.5940  112.6888   44.4632  C    0  0  1  0  0  0
   22.8267  111.8323   44.1790  C    0  0  2  0  0  0
   24.1369  112.4668   44.6456  C    0  0  1  0  0  0
   24.1153  113.0774   46.1222  C    0  0  1  0  0  0
   25.3335  113.9907   46.4014  C    0  0  0  0  0  0
   19.6528  110.8304   50.4476  C    0  0  2  0  0  0
   18.9489  110.6127   48.9839  C    0  0  1  0  0  0
   19.9150  110.7949   47.8371  C    0  0  2  0  0  0
   20.6378  112.1197   47.9679  C    0  0  1  0  0  0
   21.3581  112.2657   49.3384  C    0  0  1  0  0  0
   21.9590  113.7222   49.4920  C    0  0  0  0  0  0
   22.0016  107.8539   54.2584  C    0  0  2  0  0  0
   20.4295  107.8855   54.0372  C    0  0  1  0  0  0
   20.0496  108.2704   52.5828  C    0  0  2  0  0  0
   20.8415  109.5439   52.1772  C    0  0  1  0  0  0
   22.3731  109.4094   52.4040  C    0  0  1  0  0  0
   23.2584  110.7503   52.2096  C    0  0  0  0  0  0
   26.2189  104.5520   53.3089  C    0  0  2  0  0  0
   24.9523  103.7271   53.2350  C    0  0  1  0  0  0
   23.6210  104.5719   53.1765  C    0  0  2  0  0  0
   23.6184  105.8605   54.0757  C    0  0  1  0  0  0
   25.0692  106.5149   53.9925  C    0  0  1  0  0  0
   25.2678  107.7848   54.9067  C    0  0  0  0  0  0
   29.7592  104.7414   49.2783  C    0  0  2  0  0  0
   28.8024  103.4927   49.3447  C    0  0  1  0  0  0
   27.4446  104.0042   50.0267  C    0  0  2  0  0  0
   27.7916  104.6181   51.4401  C    0  0  1  0  0  0
   28.5877  105.8482   51.1808  C    0  0  1  0  0  0
   28.8914  106.7749   52.4054  C    0  0  0  0  0  0
   30.1357  108.3329   45.3373  C    0  0  2  0  0  0
   30.3229  106.8376   45.0690  C    0  0  1  0  0  0
   29.4771  106.0533   46.1545  C    0  0  2  0  0  0
   30.0489  106.3765   47.5133  C    0  0  1  0  0  0
   30.0789  107.9068   47.7884  C    0  0  1  0  0  0
   30.7777  108.3655   49.0068  C    0  0  0  0  0  0
   26.3306  111.8348   43.6557  C    0  0  1  0  0  0
   26.5373  110.5863   42.7508  C    0  0  1  0  0  0
   27.0758  109.3583   43.5300  C    0  0  2  0  0  0
   28.3478  109.7401   44.3953  C    0  0  1  0  0  0
   27.8725  110.9256   45.2819  C    0  0  1  0  0  0
   28.9715  111.4544   46.2430  C    0  0  0  0  0  0
   20.3739  111.9209   44.2504  O    0  0  0  0  0  0
   22.9619  111.5124   42.7864  O    0  0  0  0  0  0
   22.1425  110.4655   42.2578  C    0  0  0  0  0  0
   25.2342  111.5365   44.4963  O    0  0  0  0  0  0
   22.9316  113.9528   46.1461  O    0  0  0  0  0  0
   25.1594  114.4956   47.7496  O    0  0  0  0  0  0
   24.4951  115.8032   47.9713  C    0  0  0  0  0  0
   18.1523  109.4520   48.8454  O    0  0  0  0  0  0
   19.2160  111.0531   46.6330  O    0  0  0  0  0  0
   18.9297  109.8121   45.8937  C    0  0  0  0  0  0
   21.6455  112.1577   46.8187  O    0  0  0  0  0  0
   20.3742  112.0869   50.4261  O    0  0  0  0  0  0
   20.8555  114.6265   49.5737  O    0  0  0  0  0  0
   20.8456  115.5069   50.6898  C    0  0  0  0  0  0
   19.8410  106.6373   54.4350  O    0  0  0  0  0  0
   18.5962  108.4406   52.5258  O    0  0  0  0  0  0
   17.9753  107.3919   51.8138  C    0  0  0  0  0  0
   20.6250  109.8443   50.7436  O    0  0  0  0  0  0
   22.5275  109.0598   53.7594  O    0  0  0  0  0  0
   23.2795  111.5364   53.3712  O    0  0  0  0  0  0
   22.2875  112.5808   53.5975  C    0  0  0  0  0  0
   24.9496  102.7379   52.2694  O    0  0  0  0  0  0
   22.5649  103.6721   53.5203  O    0  0  0  0  0  0
   22.3509  103.2111   54.8546  C    0  0  0  0  0  0
   22.5887  106.7493   53.5217  O    0  0  0  0  0  0
   26.1010  105.6344   54.2594  O    0  0  0  0  0  0
   24.7342  107.4472   56.2016  O    0  0  0  0  0  0
   25.2329  108.2914   57.3138  C    0  0  0  0  0  0
   28.5918  102.9964   47.9438  O    0  0  0  0  0  0
   26.5343  102.8580   50.2494  O    0  0  0  0  0  0
   27.1275  101.5615   50.6594  C    0  0  0  0  0  0
   26.5009  105.0959   52.0169  O    0  0  0  0  0  0
   29.8516  105.4260   50.5424  O    0  0  0  0  0  0
   29.8329  106.1202   53.2031  O    0  0  0  0  0  0
   29.8146  106.7675   54.5066  C    0  0  0  0  0  0
   29.7649  106.6441   43.7357  O    0  0  0  0  0  0
   29.6145  104.5914   45.9534  O    0  0  0  0  0  0
   28.5716  104.1487   45.0865  C    0  0  0  0  0  0
   29.1737  105.7131   48.4513  O    0  0  0  0  0  0
   30.6707  108.6161   46.6256  O    0  0  0  0  0  0
   31.9875  107.6172   49.1066  O    0  0  0  0  0  0
   33.0226  108.3193   49.8017  C    0  0  0  0  0  0
   25.3373  110.2056   41.9661  O    0  0  0  0  0  0
   27.5697  108.3663   42.5933  O    0  0  0  0  0  0
   26.6320  107.4503   42.0988  C    0  0  0  0  0  0
   28.7400  108.6177   45.2074  O    0  0  0  0  0  0
   27.4738  112.0558   44.4178  O    0  0  0  0  0  0
   30.1640  111.7620   45.5941  O    0  0  0  0  0  0
   31.3042  112.0913   46.4759  C    0  0  0  0  0  0
   22.6149  114.0107   48.6202  H    0  0  0  0  0  0
   22.5642  113.8481   50.4135  H    0  0  0  0  0  0
   20.1154  111.7040   45.1734  H    0  0  0  0  0  0
   21.1007  110.6502   42.4373  H    0  0  0  0  0  0
   22.4556  109.5128   42.6087  H    0  0  0  0  0  0
   22.2551  110.5180   41.1717  H    0  0  0  0  0  0
   23.4559  115.7333   47.6366  H    0  0  0  0  0  0
   25.0844  116.5951   47.4623  H    0  0  0  0  0  0
   24.5668  116.0982   49.0005  H    0  0  0  0  0  0
   18.7506  108.6531   48.8298  H    0  0  0  0  0  0
   19.8968  109.2363   45.8841  H    0  0  0  0  0  0
   18.6851  109.9674   44.8146  H    0  0  0  0  0  0
   18.1823  109.2199   46.3651  H    0  0  0  0  0  0
   21.8008  116.0789   50.7423  H    0  0  0  0  0  0
   20.8324  114.9934   51.6512  H    0  0  0  0  0  0
   20.0965  116.2611   50.4972  H    0  0  0  0  0  0
   20.2754  106.4366   55.3441  H    0  0  0  0  0  0
   16.8854  107.5659   51.6403  H    0  0  0  0  0  0
   18.0602  106.4169   52.2921  H    0  0  0  0  0  0
   18.4152  107.3516   50.8558  H    0  0  0  0  0  0
   22.4163  113.5090   53.0056  H    0  0  0  0  0  0
   22.4884  112.9110   54.5886  H    0  0  0  0  0  0
   21.2759  112.1760   53.5533  H    0  0  0  0  0  0
   25.6236  102.9440   51.6238  H    0  0  0  0  0  0
   21.5788  103.7741   55.3771  H    0  0  0  0  0  0
   23.2940  103.2279   55.4136  H    0  0  0  0  0  0
   22.1402  102.1461   54.7664  H    0  0  0  0  0  0
   24.6239  108.1189   58.2812  H    0  0  0  0  0  0
   25.2133  109.3559   57.1663  H    0  0  0  0  0  0
   26.2332  107.8608   57.4731  H    0  0  0  0  0  0
   28.9154  103.6935   47.3226  H    0  0  0  0  0  0
   27.8737  101.1711   49.9604  H    0  0  0  0  0  0
   26.3277  100.8424   50.7021  H    0  0  0  0  0  0
   27.5197  101.6998   51.6513  H    0  0  0  0  0  0
   28.8861  106.7700   54.9797  H    0  0  0  0  0  0
   30.1416  107.8522   54.5425  H    0  0  0  0  0  0
   30.5258  106.3133   55.1527  H    0  0  0  0  0  0
   28.8252  106.9477   43.8343  H    0  0  0  0  0  0
   28.3774  102.9948   45.2882  H    0  0  0  0  0  0
   28.7878  104.3027   44.0122  H    0  0  0  0  0  0
   27.6302  104.6269   45.3210  H    0  0  0  0  0  0
   33.9651  107.7998   49.7135  H    0  0  0  0  0  0
   32.6882  108.4153   50.8798  H    0  0  0  0  0  0
   33.2918  109.2639   49.3661  H    0  0  0  0  0  0
   24.5010  110.5326   42.3984  H    0  0  0  0  0  0
   27.1691  106.5207   41.9903  H    0  0  0  0  0  0
   26.3412  107.7141   41.1537  H    0  0  0  0  0  0
   25.7165  107.3205   42.7056  H    0  0  0  0  0  0
   32.2340  112.0448   45.8395  H    0  0  0  0  0  0
   31.3536  111.4505   47.3552  H    0  0  0  0  0  0
   31.2838  113.1144   46.8709  H    0  0  0  0  0  0
   20.8462  113.8851   46.1039  H    0  0  0  0  0  0
   21.5947  113.5107   43.7366  H    0  0  0  0  0  0
   22.5570  110.9521   44.7756  H    0  0  0  0  0  0
   24.3524  113.3082   43.9756  H    0  0  0  0  0  0
   23.9947  112.2987   46.8854  H    0  0  0  0  0  0
   26.2089  113.3330   46.3349  H    0  0  0  0  0  0
   25.3219  114.7590   45.6185  H    0  0  0  0  0  0
   18.8538  110.8067   51.1975  H    0  0  0  0  0  0
   18.2190  111.4316   48.9886  H    0  0  0  0  0  0
   20.6390  109.9708   47.8529  H    0  0  0  0  0  0
   19.9940  112.9997   47.8475  H    0  0  0  0  0  0
   22.2294  111.5993   49.3541  H    0  0  0  0  0  0
   22.1547  107.7830   55.3413  H    0  0  0  0  0  0
   20.0411  108.6106   54.7631  H    0  0  0  0  0  0
   20.4131  107.5085   51.8823  H    0  0  0  0  0  0
   20.5342  110.5083   52.7049  H    0  0  0  0  0  0
   22.6942  108.5037   51.8223  H    0  0  0  0  0  0
   22.8099  111.3058   51.3956  H    0  0  0  0  0  0
   24.3028  110.3950   52.0058  H    0  0  0  0  0  0
   27.0324  103.8539   53.5652  H    0  0  0  0  0  0
   24.9285  103.2720   54.1852  H    0  0  0  0  0  0
   23.4943  104.8616   52.1445  H    0  0  0  0  0  0
   23.4148  105.5810   55.0670  H    0  0  0  0  0  0
   24.9902  106.8437   52.9781  H    0  0  0  0  0  0
   26.3640  107.9065   54.9743  H    0  0  0  0  0  0
   24.8139  108.6862   54.5340  H    0  0  0  0  0  0
   30.7896  104.4761   48.9858  H    0  0  0  0  0  0
   29.2380  102.7010   49.9712  H    0  0  0  0  0  0
   27.0482  104.8047   49.4189  H    0  0  0  0  0  0
   28.3757  103.9270   52.0589  H    0  0  0  0  0  0
   28.0136  106.4174   50.4670  H    0  0  0  0  0  0
   29.3430  107.6674   52.0405  H    0  0  0  0  0  0
   27.9845  107.0303   53.0075  H    0  0  0  0  0  0
   30.5935  108.9377   44.5350  H    0  0  0  0  0  0
   31.3922  106.5879   45.2657  H    0  0  0  0  0  0
   28.3953  106.3206   46.1659  H    0  0  0  0  0  0
   31.0542  105.9823   47.5819  H    0  0  0  0  0  0
   28.9562  108.2273   47.9176  H    0  0  0  0  0  0
   30.9334  109.4083   49.0010  H    0  0  0  0  0  0
   30.0316  108.1455   49.8297  H    0  0  0  0  0  0
   26.0846  112.7639   43.1152  H    0  0  0  0  0  0
   27.3967  110.8300   42.0808  H    0  0  0  0  0  0
   26.2649  108.9291   44.1492  H    0  0  0  0  0  0
   29.1770  109.9502   43.7231  H    0  0  0  0  0  0
   27.0255  110.6252   45.9205  H    0  0  0  0  0  0
   29.1127  110.7478   47.0778  H    0  0  0  0  0  0
   28.7049  112.3606   46.7834  H    0  0  0  0  0  0
  1  2  1  0  0  0
  1 47  1  0  0  0
  1 53  1  0  0  0
  1143  1  0  0  0
  2  3  1  0  0  0
  2 43  1  0  0  0
  2144  1  0  0  0
  3  4  1  0  0  0
  3 44  1  0  0  0
  3145  1  0  0  0
  4  5  1  0  0  0
  4 46  1  0  0  0
  4146  1  0  0  0
  5  6  1  0  0  0
  5 47  1  0  0  0
  5147  1  0  0  0
  6 48  1  0  0  0
  6148  1  0  0  0
  6149  1  0  0  0
  7  8  1  0  0  0
  7 54  1  0  0  0
  7 60  1  0  0  0
  7150  1  0  0  0
  8  9  1  0  0  0
  8 50  1  0  0  0
  8151  1  0  0  0
  9 10  1  0  0  0
  9 51  1  0  0  0
  9152  1  0  0  0
 10 11  1  0  0  0
 10 53  1  0  0  0
 10153  1  0  0  0
 11 12  1  0  0  0
 11 54  1  0  0  0
 11154  1  0  0  0
 12 55  1  0  0  0
 12 92  1  0  0  0
 12 93  1  0  0  0
 13 14  1  0  0  0
 13 61  1  0  0  0
 13 67  1  0  0  0
 13155  1  0  0  0
 14 15  1  0  0  0
 14 57  1  0  0  0
 14156  1  0  0  0
 15 16  1  0  0  0
 15 58  1  0  0  0
 15157  1  0  0  0
 16 17  1  0  0  0
 16 60  1  0  0  0
 16158  1  0  0  0
 17 18  1  0  0  0
 17 61  1  0  0  0
 17159  1  0  0  0
 18 62  1  0  0  0
 18160  1  0  0  0
 18161  1  0  0  0
 19 20  1  0  0  0
 19 68  1  0  0  0
 19 74  1  0  0  0
 19162  1  0  0  0
 20 21  1  0  0  0
 20 64  1  0  0  0
 20163  1  0  0  0
 21 22  1  0  0  0
 21 65  1  0  0  0
 21164  1  0  0  0
 22 23  1  0  0  0
 22 67  1  0  0  0
 22165  1  0  0  0
 23 24  1  0  0  0
 23 68  1  0  0  0
 23166  1  0  0  0
 24 69  1  0  0  0
 24167  1  0  0  0
 24168  1  0  0  0
 25 26  1  0  0  0
 25 75  1  0  0  0
 25 81  1  0  0  0
 25169  1  0  0  0
 26 27  1  0  0  0
 26 71  1  0  0  0
 26170  1  0  0  0
 27 28  1  0  0  0
 27 72  1  0  0  0
 27171  1  0  0  0
 28 29  1  0  0  0
 28 74  1  0  0  0
 28172  1  0  0  0
 29 30  1  0  0  0
 29 75  1  0  0  0
 29173  1  0  0  0
 30 76  1  0  0  0
 30174  1  0  0  0
 30175  1  0  0  0
 31 32  1  0  0  0
 31 82  1  0  0  0
 31 88  1  0  0  0
 31176  1  0  0  0
 32 33  1  0  0  0
 32 78  1  0  0  0
 32177  1  0  0  0
 33 34  1  0  0  0
 33 79  1  0  0  0
 33178  1  0  0  0
 34 35  1  0  0  0
 34 81  1  0  0  0
 34179  1  0  0  0
 35 36  1  0  0  0
 35 82  1  0  0  0
 35180  1  0  0  0
 36 83  1  0  0  0
 36181  1  0  0  0
 36182  1  0  0  0
 37 38  1  0  0  0
 37 46  1  0  0  0
 37 89  1  0  0  0
 37183  1  0  0  0
 38 39  1  0  0  0
 38 85  1  0  0  0
 38184  1  0  0  0
 39 40  1  0  0  0
 39 86  1  0  0  0
 39185  1  0  0  0
 40 41  1  0  0  0
 40 88  1  0  0  0
 40186  1  0  0  0
 41 42  1  0  0  0
 41 89  1  0  0  0
 41187  1  0  0  0
 42 90  1  0  0  0
 42188  1  0  0  0
 42189  1  0  0  0
 43 94  1  0  0  0
 44 45  1  0  0  0
 45 95  1  0  0  0
 45 96  1  0  0  0
 45 97  1  0  0  0
 48 49  1  0  0  0
 49 98  1  0  0  0
 49 99  1  0  0  0
 49100  1  0  0  0
 50101  1  0  0  0
 51 52  1  0  0  0
 52102  1  0  0  0
 52103  1  0  0  0
 52104  1  0  0  0
 55 56  1  0  0  0
 56105  1  0  0  0
 56106  1  0  0  0
 56107  1  0  0  0
 57108  1  0  0  0
 58 59  1  0  0  0
 59109  1  0  0  0
 59110  1  0  0  0
 59111  1  0  0  0
 62 63  1  0  0  0
 63112  1  0  0  0
 63113  1  0  0  0
 63114  1  0  0  0
 64115  1  0  0  0
 65 66  1  0  0  0
 66116  1  0  0  0
 66117  1  0  0  0
 66118  1  0  0  0
 69 70  1  0  0  0
 70119  1  0  0  0
 70120  1  0  0  0
 70121  1  0  0  0
 71122  1  0  0  0
 72 73  1  0  0  0
 73123  1  0  0  0
 73124  1  0  0  0
 73125  1  0  0  0
 76 77  1  0  0  0
 77126  1  0  0  0
 77127  1  0  0  0
 77128  1  0  0  0
 78129  1  0  0  0
 79 80  1  0  0  0
 80130  1  0  0  0
 80131  1  0  0  0
 80132  1  0  0  0
 83 84  1  0  0  0
 84133  1  0  0  0
 84134  1  0  0  0
 84135  1  0  0  0
 85136  1  0  0  0
 86 87  1  0  0  0
 87137  1  0  0  0
 87138  1  0  0  0
 87139  1  0  0  0
 90 91  1  0  0  0
 91140  1  0  0  0
 91141  1  0  0  0
 91142  1  0  0  0
M  END
> <s_m_entry_id>
14

> <s_m_Source_Path>
/home/emilio/Dropbox/sims/SAMPL9/work/receptor

> <s_m_Source_File>
bCDH26DM.mol2

> <i_m_Source_File_Index>
1

$$$$

