@<TRIPOS>MOLECULE
LIG
189 196
SMALL
USER_CHARGES
@<TRIPOS>ATOM
      1 C1         21.6937  113.2206   45.9006 aa             2 LIG     0.430935
      2 C2         21.5940  112.6888   44.4632 ab             1 LIG     0.207656
      3 C3         22.8267  111.8323   44.1790 ad             2 LIG     0.188798
      4 C4         24.1369  112.4668   44.6456 ae             1 LIG     0.195488
      5 C5         24.1153  113.0774   46.1222 af             1 LIG     0.195488
      6 C6         25.3335  113.9907   46.4014 ah             0 LIG     0.166225
      7 C7         19.6528  110.8304   50.4476 ai             2 LIG     0.430935
      8 C8         18.9489  110.6127   48.9839 aj             1 LIG     0.207656
      9 C9         19.9150  110.7949   47.8371 ak             2 LIG     0.188798
     10 C10        20.6378  112.1197   47.9679 an             1 LIG     0.195488
     11 C11        21.3581  112.2657   49.3384 ao             1 LIG     0.195488
     12 C12        21.9590  113.7222   49.4920 ap             0 LIG     0.166225
     13 C13        22.0016  107.8539   54.2584 aq             2 LIG     0.430935
     14 C14        20.4295  107.8855   54.0372 av             1 LIG     0.207656
     15 C15        20.0496  108.2704   52.5828 aw             2 LIG     0.188798
     16 C16        20.8415  109.5439   52.1772 ax             1 LIG     0.195488
     17 C17        22.3731  109.4094   52.4040 ay             1 LIG     0.195488
     18 C18        23.2584  110.7503   52.2096 az             0 LIG     0.166225
     19 C19        26.2189  104.5520   53.3089 bb             2 LIG     0.430935
     20 C20        24.9523  103.7271   53.2350 bc             1 LIG     0.207656
     21 C21        23.6210  104.5719   53.1765 bd             2 LIG     0.188798
     22 C22        23.6184  105.8605   54.0757 bf             1 LIG     0.195488
     23 C23        25.0692  106.5149   53.9925 bg             1 LIG     0.195488
     24 C24        25.2678  107.7848   54.9067 bh             0 LIG     0.166225
     25 C25        29.7592  104.7414   49.2783 bj             2 LIG     0.430935
     26 C26        28.8024  103.4927   49.3447 bk             1 LIG     0.207656
     27 C27        27.4446  104.0042   50.0267 bl             2 LIG     0.188798
     28 C28        27.7916  104.6181   51.4401 bm             1 LIG     0.195488
     29 C29        28.5877  105.8482   51.1808 bn             1 LIG     0.195488
     30 C30        28.8914  106.7749   52.4054 bo             0 LIG     0.166225
     31 C31        30.1357  108.3329   45.3373 bp             2 LIG     0.430935
     32 C32        30.3229  106.8376   45.0690 bq             1 LIG     0.207656
     33 C33        29.4771  106.0533   46.1545 bs             2 LIG     0.188798
     34 C34        30.0489  106.3765   47.5133 bt             1 LIG     0.195488
     35 C35        30.0789  107.9068   47.7884 bu             1 LIG     0.195488
     36 C36        30.7777  108.3655   49.0068 bv             0 LIG     0.166225
     37 C37        26.3306  111.8348   43.6557 bw             1 LIG     0.430935
     38 C38        26.5373  110.5863   42.7508 bx             1 LIG     0.207656
     39 C39        27.0758  109.3583   43.5300 by             2 LIG     0.188798
     40 C40        28.3478  109.7401   44.3953 bz             1 LIG     0.195488
     41 C41        27.8725  110.9256   45.2819 cb             1 LIG     0.195488
     42 C42        28.9715  111.4544   46.2430 ci             0 LIG     0.166225
     43 O1         20.3739  111.9209   44.2504 cj             0 LIG     -0.735959
     44 O2         22.9619  111.5124   42.7864 ck             0 LIG     -0.511627
     45 C43        22.1425  110.4655   42.2578 cm             0 LIG     0.074802
     46 O3         25.2342  111.5365   44.4963 cn             0 LIG     -0.542414
     47 O4         22.9316  113.9528   46.1461 ct             0 LIG     -0.542414
     48 O5         25.1594  114.4956   47.7496 cw             0 LIG     -0.511627
     49 C44        24.4951  115.8032   47.9713 da             0 LIG     0.074802
     50 O6         18.1523  109.4520   48.8454 db             0 LIG     -0.735959
     51 O7         19.2160  111.0531   46.6330 dc             0 LIG     -0.511627
     52 C45        18.9297  109.8121   45.8937 dd             0 LIG     0.074802
     53 O8         21.6455  112.1577   46.8187 de             0 LIG     -0.542414
     54 O9         20.3742  112.0869   50.4261 df             0 LIG     -0.542414
     55 O10        20.8555  114.6265   49.5737 dg             0 LIG     -0.511627
     56 C46        20.8456  115.5069   50.6898 dh             0 LIG     0.074802
     57 O11        19.8410  106.6373   54.4350 di             0 LIG     -0.735959
     58 O12        18.5962  108.4406   52.5258 dj             0 LIG     -0.511627
     59 C47        17.9753  107.3919   51.8138 dk             0 LIG     0.074802
     60 O13        20.6250  109.8443   50.7436 dl             0 LIG     -0.542414
     61 O14        22.5275  109.0598   53.7594 dm             0 LIG     -0.542414
     62 O15        23.2795  111.5364   53.3712 dn             0 LIG     -0.511627
     63 C48        22.2875  112.5808   53.5975 do             0 LIG     0.074802
     64 O16        24.9496  102.7379   52.2694 dp             0 LIG     -0.735959
     65 O17        22.5649  103.6721   53.5203 dq             0 LIG     -0.511627
     66 C49        22.3509  103.2111   54.8546 dr             0 LIG     0.074802
     67 O18        22.5887  106.7493   53.5217 ds             0 LIG     -0.542414
     68 O19        26.1010  105.6344   54.2594 dt             0 LIG     -0.542414
     69 O20        24.7342  107.4472   56.2016 dv             0 LIG     -0.511627
     70 C50        25.2329  108.2914   57.3138 dw             0 LIG     0.074802
     71 O21        28.5918  102.9964   47.9438 dx             0 LIG     -0.735959
     72 O22        26.5343  102.8580   50.2494 dz             0 LIG     -0.511627
     73 C51        27.1275  101.5615   50.6594 ea             0 LIG     0.074802
     74 O23        26.5009  105.0959   52.0169 eb             0 LIG     -0.542414
     75 O24        29.8516  105.4260   50.5424 ec             0 LIG     -0.542414
     76 O25        29.8329  106.1202   53.2031 ed             0 LIG     -0.511627
     77 C52        29.8146  106.7675   54.5066 ee             0 LIG     0.074802
     78 O26        29.7649  106.6441   43.7357 ef             0 LIG     -0.735959
     79 O27        29.6145  104.5914   45.9534 eg             0 LIG     -0.511627
     80 C53        28.5716  104.1487   45.0865 eh             0 LIG     0.074802
     81 O28        29.1737  105.7131   48.4513 ei             0 LIG     -0.542414
     82 O29        30.6707  108.6161   46.6256 ej             0 LIG     -0.542414
     83 O30        31.9875  107.6172   49.1066 ek             0 LIG     -0.511627
     84 C54        33.0226  108.3193   49.8017 el             0 LIG     0.074802
     85 O31        25.3373  110.2056   41.9661 em             0 LIG     -0.735959
     86 O32        27.5697  108.3663   42.5933 en             0 LIG     -0.511627
     87 C55        26.6320  107.4503   42.0988 eo             0 LIG     0.074802
     88 O33        28.7400  108.6177   45.2074 eq             0 LIG     -0.542414
     89 O34        27.4738  112.0558   44.4178 es             0 LIG     -0.542414
     90 O35        30.1640  111.7620   45.5941 et             0 LIG     -0.511627
     91 C56        31.3042  112.0913   46.4759 ev             0 LIG     0.074802
     92 H1         22.6149  114.0107   48.6202 ew             0 LIG     0.056965
     93 H2         22.5642  113.8481   50.4135 ex             0 LIG     0.056965
     94 H3         20.1154  111.7040   45.1734 ey             0 LIG     0.497876
     95 H4         21.1007  110.6502   42.4373 ez             0 LIG     0.066990
     96 H5         22.4556  109.5128   42.6087 fa             0 LIG     0.066990
     97 H6         22.2551  110.5180   41.1717 fb             0 LIG     0.066990
     98 H7         23.4559  115.7333   47.6366 fc             0 LIG     0.066990
     99 H8         25.0844  116.5951   47.4623 fd             0 LIG     0.066990
    100 H9         24.5668  116.0982   49.0005 ff             0 LIG     0.066990
    101 H10        18.7506  108.6531   48.8298 fg             0 LIG     0.497876
    102 H11        19.8968  109.2363   45.8841 fh             0 LIG     0.066990
    103 H12        18.6851  109.9674   44.8146 fi             0 LIG     0.066990
    104 H13        18.1823  109.2199   46.3651 fj             0 LIG     0.066990
    105 H14        21.8008  116.0789   50.7423 fk             0 LIG     0.066990
    106 H15        20.8324  114.9934   51.6512 fl             0 LIG     0.066990
    107 H16        20.0965  116.2611   50.4972 fm             0 LIG     0.066990
    108 H17        20.2754  106.4366   55.3441 fn             0 LIG     0.497876
    109 H18        16.8854  107.5659   51.6403 fo             0 LIG     0.066990
    110 H19        18.0602  106.4169   52.2921 fp             0 LIG     0.066990
    111 H20        18.4152  107.3516   50.8558 fq             0 LIG     0.066990
    112 H21        22.4163  113.5090   53.0056 fs             0 LIG     0.066990
    113 H22        22.4884  112.9110   54.5886 ft             0 LIG     0.066990
    114 H23        21.2759  112.1760   53.5533 fu             0 LIG     0.066990
    115 H24        25.6236  102.9440   51.6238 fv             0 LIG     0.497876
    116 H25        21.5788  103.7741   55.3771 fw             0 LIG     0.066990
    117 H26        23.2940  103.2279   55.4136 fx             0 LIG     0.066990
    118 H27        22.1402  102.1461   54.7664 fy             0 LIG     0.066990
    119 H28        24.6239  108.1189   58.2812 fz             0 LIG     0.066990
    120 H29        25.2133  109.3559   57.1663 gb             0 LIG     0.066990
    121 H30        26.2332  107.8608   57.4731 gc             0 LIG     0.066990
    122 H31        28.9154  103.6935   47.3226 gf             0 LIG     0.497876
    123 H32        27.8737  101.1711   49.9604 gg             0 LIG     0.066990
    124 H33        26.3277  100.8424   50.7021 gh             0 LIG     0.066990
    125 H34        27.5197  101.6998   51.6513 gi             0 LIG     0.066990
    126 H35        28.8861  106.7700   54.9797 gj             0 LIG     0.066990
    127 H36        30.1416  107.8522   54.5425 gk             0 LIG     0.066990
    128 H37        30.5258  106.3133   55.1527 gl             0 LIG     0.066990
    129 H38        28.8252  106.9477   43.8343 gm             0 LIG     0.497876
    130 H39        28.3774  102.9948   45.2882 gn             0 LIG     0.066990
    131 H40        28.7878  104.3027   44.0122 go             0 LIG     0.066990
    132 H41        27.6302  104.6269   45.3210 gp             0 LIG     0.066990
    133 H42        33.9651  107.7998   49.7135 gq             0 LIG     0.066990
    134 H43        32.6882  108.4153   50.8798 gr             0 LIG     0.066990
    135 H44        33.2918  109.2639   49.3661 gs             0 LIG     0.066990
    136 H45        24.5010  110.5326   42.3984 gt             0 LIG     0.497876
    137 H46        27.1691  106.5207   41.9903 gu             0 LIG     0.066990
    138 H47        26.3412  107.7141   41.1537 gv             0 LIG     0.066990
    139 H48        25.7165  107.3205   42.7056 gw             0 LIG     0.066990
    140 H49        32.2340  112.0448   45.8395 gx             0 LIG     0.066990
    141 H50        31.3536  111.4505   47.3552 gy             0 LIG     0.066990
    142 H51        31.2838  113.1144   46.8709 gz             0 LIG     0.066990
    143 H52        20.8462  113.8851   46.1039 hb             0 LIG     0.060700
    144 H53        21.5947  113.5107   43.7366 hd             0 LIG     0.055736
    145 H54        22.5570  110.9521   44.7756 hh             0 LIG     0.078119
    146 H55        24.3524  113.3082   43.9756 hi             0 LIG     0.050773
    147 H56        23.9947  112.2987   46.8854 hj             0 LIG     0.050773
    148 H57        26.2089  113.3330   46.3349 hk             0 LIG     0.056965
    149 H58        25.3219  114.7590   45.6185 hl             0 LIG     0.056965
    150 H59        18.8538  110.8067   51.1975 hm             0 LIG     0.060700
    151 H60        18.2190  111.4316   48.9886 hq             0 LIG     0.055736
    152 H61        20.6390  109.9708   47.8529 hr             0 LIG     0.078119
    153 H62        19.9940  112.9997   47.8475 ht             0 LIG     0.050773
    154 H63        22.2294  111.5993   49.3541 hu             0 LIG     0.050773
    155 H64        22.1547  107.7830   55.3413 hv             0 LIG     0.060700
    156 H65        20.0411  108.6106   54.7631 hy             0 LIG     0.055736
    157 H66        20.4131  107.5085   51.8823 hz             0 LIG     0.078119
    158 H67        20.5342  110.5083   52.7049 ia             0 LIG     0.050773
    159 H68        22.6942  108.5037   51.8223 ib             0 LIG     0.050773
    160 H69        22.8099  111.3058   51.3956 ic             0 LIG     0.056965
    161 H70        24.3028  110.3950   52.0058 id             0 LIG     0.056965
    162 H71        27.0324  103.8539   53.5652 ie             0 LIG     0.060700
    163 H72        24.9285  103.2720   54.1852 if             0 LIG     0.055736
    164 H73        23.4943  104.8616   52.1445 ig             0 LIG     0.078119
    165 H74        23.4148  105.5810   55.0670 ih             0 LIG     0.050773
    166 H75        24.9902  106.8437   52.9781 ii             0 LIG     0.050773
    167 H76        26.3640  107.9065   54.9743 ij             0 LIG     0.056965
    168 H77        24.8139  108.6862   54.5340 ik             0 LIG     0.056965
    169 H78        30.7896  104.4761   48.9858 il             0 LIG     0.060700
    170 H79        29.2380  102.7010   49.9712 im             0 LIG     0.055736
    171 H80        27.0482  104.8047   49.4189 io             0 LIG     0.078119
    172 H81        28.3757  103.9270   52.0589 ip             0 LIG     0.050773
    173 H82        28.0136  106.4174   50.4670 iq             0 LIG     0.050773
    174 H83        29.3430  107.6674   52.0405 is             0 LIG     0.056965
    175 H84        27.9845  107.0303   53.0075 it             0 LIG     0.056965
    176 H85        30.5935  108.9377   44.5350 iu             0 LIG     0.060700
    177 H86        31.3922  106.5879   45.2657 iv             0 LIG     0.055736
    178 H87        28.3953  106.3206   46.1659 iw             0 LIG     0.078119
    179 H88        31.0542  105.9823   47.5819 ix             0 LIG     0.050773
    180 H89        28.9562  108.2273   47.9176 iy             0 LIG     0.050773
    181 H90        30.9334  109.4083   49.0010 iz             0 LIG     0.056965
    182 H91        30.0316  108.1455   49.8297 ja             0 LIG     0.056965
    183 H92        26.0846  112.7639   43.1152 jb             0 LIG     0.060700
    184 H93        27.3967  110.8300   42.0808 jc             0 LIG     0.055736
    185 H94        26.2649  108.9291   44.1492 jd             0 LIG     0.078119
    186 H95        29.1770  109.9502   43.7231 je             0 LIG     0.050773
    187 H96        27.0255  110.6252   45.9205 jf             0 LIG     0.050773
    188 H97        29.1127  110.7478   47.0778 jg             0 LIG     0.056965
    189 H98        28.7049  112.3606   46.7834 jh             0 LIG     0.056965
@<TRIPOS>BOND
        1  1  2  1
        2  1  47  1
        3  1  53  1
        4  1  143  1
        5  2  3  1
        6  2  43  1
        7  2  144  1
        8  3  4  1
        9  3  44  1
        10  3  145  1
        11  4  5  1
        12  4  46  1
        13  4  146  1
        14  5  6  1
        15  5  47  1
        16  5  147  1
        17  6  48  1
        18  6  148  1
        19  6  149  1
        20  7  8  1
        21  7  54  1
        22  7  60  1
        23  7  150  1
        24  8  9  1
        25  8  50  1
        26  8  151  1
        27  9  10  1
        28  9  51  1
        29  9  152  1
        30  10  11  1
        31  10  53  1
        32  10  153  1
        33  11  12  1
        34  11  54  1
        35  11  154  1
        36  12  55  1
        37  12  92  1
        38  12  93  1
        39  13  14  1
        40  13  61  1
        41  13  67  1
        42  13  155  1
        43  14  15  1
        44  14  57  1
        45  14  156  1
        46  15  16  1
        47  15  58  1
        48  15  157  1
        49  16  17  1
        50  16  60  1
        51  16  158  1
        52  17  18  1
        53  17  61  1
        54  17  159  1
        55  18  62  1
        56  18  160  1
        57  18  161  1
        58  19  20  1
        59  19  68  1
        60  19  74  1
        61  19  162  1
        62  20  21  1
        63  20  64  1
        64  20  163  1
        65  21  22  1
        66  21  65  1
        67  21  164  1
        68  22  23  1
        69  22  67  1
        70  22  165  1
        71  23  24  1
        72  23  68  1
        73  23  166  1
        74  24  69  1
        75  24  167  1
        76  24  168  1
        77  25  26  1
        78  25  75  1
        79  25  81  1
        80  25  169  1
        81  26  27  1
        82  26  71  1
        83  26  170  1
        84  27  28  1
        85  27  72  1
        86  27  171  1
        87  28  29  1
        88  28  74  1
        89  28  172  1
        90  29  30  1
        91  29  75  1
        92  29  173  1
        93  30  76  1
        94  30  174  1
        95  30  175  1
        96  31  32  1
        97  31  82  1
        98  31  88  1
        99  31  176  1
        100  32  33  1
        101  32  78  1
        102  32  177  1
        103  33  34  1
        104  33  79  1
        105  33  178  1
        106  34  35  1
        107  34  81  1
        108  34  179  1
        109  35  36  1
        110  35  82  1
        111  35  180  1
        112  36  83  1
        113  36  181  1
        114  36  182  1
        115  37  38  1
        116  37  46  1
        117  37  89  1
        118  37  183  1
        119  38  39  1
        120  38  85  1
        121  38  184  1
        122  39  40  1
        123  39  86  1
        124  39  185  1
        125  40  41  1
        126  40  88  1
        127  40  186  1
        128  41  42  1
        129  41  89  1
        130  41  187  1
        131  42  90  1
        132  42  188  1
        133  42  189  1
        134  43  94  1
        135  44  45  1
        136  45  95  1
        137  45  96  1
        138  45  97  1
        139  48  49  1
        140  49  98  1
        141  49  99  1
        142  49  100  1
        143  50  101  1
        144  51  52  1
        145  52  102  1
        146  52  103  1
        147  52  104  1
        148  55  56  1
        149  56  105  1
        150  56  106  1
        151  56  107  1
        152  57  108  1
        153  58  59  1
        154  59  109  1
        155  59  110  1
        156  59  111  1
        157  62  63  1
        158  63  112  1
        159  63  113  1
        160  63  114  1
        161  64  115  1
        162  65  66  1
        163  66  116  1
        164  66  117  1
        165  66  118  1
        166  69  70  1
        167  70  119  1
        168  70  120  1
        169  70  121  1
        170  71  122  1
        171  72  73  1
        172  73  123  1
        173  73  124  1
        174  73  125  1
        175  76  77  1
        176  77  126  1
        177  77  127  1
        178  77  128  1
        179  78  129  1
        180  79  80  1
        181  80  130  1
        182  80  131  1
        183  80  132  1
        184  83  84  1
        185  84  133  1
        186  84  134  1
        187  84  135  1
        188  85  136  1
        189  86  87  1
        190  87  137  1
        191  87  138  1
        192  87  139  1
        193  90  91  1
        194  91  140  1
        195  91  141  1
        196  91  142  1
@<TRIPOS>SUBSTRUCTURE
       1 LIG             1 RESIDUE    0 **** ROOT      0

