TDZNR1aspR
                    3D
 Structure written by MMmdl.
 52 55  0  0  1  0            999 V2000
   24.0497  105.3098   47.2427 C   0  0  0  0  0  0
   23.4707  106.4262   47.8336 C   0  0  0  0  0  0
   24.9407  105.4649   46.1821 C   0  0  0  0  0  0
   23.7669  107.6936   47.3447 C   0  0  0  0  0  0
   27.4485  110.2442   45.8960 C   0  0  0  0  0  0
   28.8326  110.1209   45.7380 C   0  0  0  0  0  0
   28.5214  107.9182   44.8102 C   0  0  0  0  0  0
   25.2843  106.7369   45.6789 C   0  0  0  0  0  0
   27.1198  108.0009   44.9695 C   0  0  0  0  0  0
   24.6487  107.8512   46.2727 C   0  0  0  0  0  0
   26.6075  109.1998   45.5051 C   0  0  0  0  0  0
   29.3806  108.9467   45.1775 C   0  0  0  0  0  0
   26.0401  104.8695   39.1043 C   0  0  0  0  0  0
   24.9477  105.4713   38.2234 C   0  0  0  0  0  0
   26.2429  105.7400   40.3443 C   0  0  0  0  0  0
   23.6494  105.6557   39.0229 C   0  0  0  0  0  0
   24.9293  105.9935   41.1347 C   0  0  1  0  0  0
   22.5473  106.7595   40.9024 C   0  0  0  0  0  0
   31.9164  109.7957   46.3129 C   0  0  0  0  0  0
   25.2154  106.9615   42.3140 C   0  0  0  0  0  0
   26.2074  106.3562   43.3284 C   0  0  0  0  0  0
   26.2576  106.9182   44.6659 N   0  0  0  0  0  0
   23.8552  106.5109   40.2274 N   0  3  2  0  0  0
   24.8791  109.4649   45.6279 S   0  0  0  0  0  0
   31.1250  108.8446   44.9866 S   0  0  0  0  0  0
   23.8117  104.3218   47.6079 H   0  0  0  0  0  0
   22.7815  106.3094   48.6567 H   0  0  0  0  0  0
   25.3505  104.5595   45.7703 H   0  0  0  0  0  0
   23.2897  108.5555   47.7878 H   0  0  0  0  0  0
   27.0487  111.1539   46.2995 H   0  0  0  0  0  0
   29.4767  110.9361   46.0345 H   0  0  0  0  0  0
   28.9728  107.0368   44.3889 H   0  0  0  0  0  0
   25.7783  103.8508   39.3961 H   0  0  0  0  0  0
   26.9794  104.7969   38.5513 H   0  0  0  0  0  0
   25.2848  106.4268   37.8190 H   0  0  0  0  0  0
   24.7685  104.8195   37.3653 H   0  0  0  0  0  0
   26.9901  105.2354   40.9588 H   0  0  0  0  0  0
   26.6888  106.6934   40.0598 H   0  0  0  0  0  0
   22.9039  106.1145   38.3699 H   0  0  0  0  0  0
   23.2545  104.6808   39.3185 H   0  0  0  0  0  0
   24.5903  105.0361   41.5400 H   0  0  0  0  0  0
   22.1795  105.8583   41.3978 H   0  0  0  0  0  0
   21.7947  107.0755   40.1781 H   0  0  0  0  0  0
   22.6054  107.5611   41.6381 H   0  0  0  0  0  0
   32.9876  109.8722   46.1270 H   0  0  0  0  0  0
   31.7735  109.3079   47.2769 H   0  0  0  0  0  0
   31.5013  110.8024   46.3558 H   0  0  0  0  0  0
   25.6136  107.9061   41.9441 H   0  0  0  0  0  0
   24.2892  107.2327   42.8028 H   0  0  0  0  0  0
   25.8623  105.3664   43.5750 H   0  0  0  0  0  0
   27.2171  106.2101   42.9116 H   0  0  0  0  0  0
   24.1863  107.4023   39.8885 H   0  0  0  0  0  0
  1  2  2  0  0  0
  1  3  1  0  0  0
  1 26  1  0  0  0
  2  4  1  0  0  0
  2 27  1  0  0  0
  3  8  2  0  0  0
  3 28  1  0  0  0
  4 10  2  0  0  0
  4 29  1  0  0  0
  5  6  2  0  0  0
  5 11  1  0  0  0
  5 30  1  0  0  0
  6 12  1  0  0  0
  6 31  1  0  0  0
  7  9  1  0  0  0
  7 12  2  0  0  0
  7 32  1  0  0  0
  8 10  1  0  0  0
  8 22  1  0  0  0
  9 11  2  0  0  0
  9 22  1  0  0  0
 10 24  1  0  0  0
 11 24  1  0  0  0
 12 25  1  0  0  0
 13 14  1  0  0  0
 13 15  1  0  0  0
 13 33  1  0  0  0
 13 34  1  0  0  0
 14 16  1  0  0  0
 14 35  1  0  0  0
 14 36  1  0  0  0
 15 17  1  0  0  0
 15 37  1  0  0  0
 15 38  1  0  0  0
 16 23  1  0  0  0
 16 39  1  0  0  0
 16 40  1  0  0  0
 17 20  1  0  0  0
 17 23  1  0  0  0
 17 41  1  0  0  0
 18 23  1  0  0  0
 18 42  1  0  0  0
 18 43  1  0  0  0
 18 44  1  0  0  0
 19 25  1  0  0  0
 19 45  1  0  0  0
 19 46  1  0  0  0
 19 47  1  0  0  0
 20 21  1  0  0  0
 20 48  1  0  0  0
 20 49  1  0  0  0
 21 22  1  0  0  0
 21 50  1  0  0  0
 21 51  1  0  0  0
 23 52  1  0  0  0
M  CHG  1  23   1
M  END
> <s_m_entry_id>
483

> <s_m_entry_name>
TDZNR1aspR.1

> <s_m_Source_Path>
/home/emilio/Dropbox/SAMPL9-eglab/mCD/ligsdfs

> <s_m_Source_File>
TDZNR1aspR.sdf

> <i_m_Source_File_Index>
1

> <i_lp_mmshare_version>
47013

> <s_epik_input>
W2NIXTFbY0hdW2NIXVtjSF1jKGMxMilTYzNjKFtjSF1jKFtjSF1bY0hdMylTW0NIM10pTjJbQ0gyXVtDSDJdW0NAQEhdNFtDSDJdW0NIMl1bQ0gyXVtDSDJdTjRbQ0gzXQ==

> <s_epik_cmdline>
J2VwaWtfcHl0aG9uJywgJy1waHQnLCAnNC4wJywgJy1waCcsICc3LjQnLCAnLXRuJywgJzgnLCAnLW1hJywgJzIwMCcsICctaW1hZScsICc8aW5maWxlLm1hZT4nLCAnLW9tYWUnLCAnPG91dGZpbGUubWFlPic=

> <r_epik_Ionization_Penalty>
  0.0017

> <r_epik_Ionization_Penalty_Charging>
  0.0017

> <r_epik_Ionization_Penalty_Neutral>
  0.0000

> <r_epik_State_Penalty>
  0.0011

> <r_epik_Charging_Adjusted_Penalty>
0.00279136850725907

> <i_epik_Tot_Q>
1

> <i_epik_Tot_abs_Q>
1

> <s_lp_Force_Field>
OPLS3e

> <r_lp_Energy>
55.960333

> <b_lp_Chiralities_Consistent>
1

> <s_lp_Variant>
TDZ-NR-1

> <s_m_job_name>
ligprep_4

> <chiral flag>
1

> <version>
0

> <i_f3d_flags>
0

> <s_m_subgroup_title>
bCDq->spR

> <s_m_subgroupid>
bCDq_copy1->spR_copy1

> <b_m_subgroup_collapsed>
0

$$$$
