@<TRIPOS>MOLECULE
mCDffe
189   196    1
SMALL
USER_CHARGES


@<TRIPOS>ATOM
      1 C1         22.1229  113.1077   36.9523 Du        1 LIG         0.4309 
      2 C2         21.5919  112.3108   35.7623 Du        1 LIG         0.2077 
      3 C3         22.5186  111.1266   35.4573 Du        1 LIG         0.1888 
      4 C4         23.9544  111.6358   35.2903 Du        1 LIG         0.1955 
      5 C5         24.3961  112.4081   36.5305 Du        1 LIG         0.1955 
      6 C6         25.7423  113.1003   36.2828 Du        1 LIG         0.1662 
      7 C7         20.9505  112.5512   42.1134 Du        1 LIG         0.4309 
      8 C8         19.9184  112.0963   41.1450 Du        1 LIG         0.2077 
      9 C9         20.5302  111.7037   39.7962 Du        1 LIG         0.1888 
     10 C10        21.4121  112.7710   39.3031 Du        1 LIG         0.1955 
     11 C11        22.4753  113.0971   40.3509 Du        1 LIG         0.1955 
     12 C12        23.4961  114.1827   40.0048 Du        1 LIG         0.1662 
     13 C13        23.2859  109.7728   45.9494 Du        1 LIG         0.4309 
     14 C14        21.9705  109.1981   45.4688 Du        1 LIG         0.2077 
     15 C15        21.7608  109.6129   44.0091 Du        1 LIG         0.1888 
     16 C16        21.8140  110.9533   43.9905 Du        1 LIG         0.1955 
     17 C17        23.1359  111.6772   44.4958 Du        1 LIG         0.1955 
     18 C18        23.1334  113.1489   44.6228 Du        1 LIG         0.1662 
     19 C19        27.9998  107.3831   45.4258 Du        1 LIG         0.4309 
     20 C20        26.8574  106.6445   46.1572 Du        1 LIG         0.2077 
     21 C21        25.5331  107.2088   45.6662 Du        1 LIG         0.1888 
     22 C22        25.5042  108.7056   45.8640 Du        1 LIG         0.1955 
     23 C23        26.7244  109.3589   45.2197 Du        1 LIG         0.1955 
     24 C24        26.8268  110.8611   45.6269 Du        1 LIG         0.1662 
     25 C25        30.1487  105.7054   40.8578 Du        1 LIG         0.4309 
     26 C26        29.4365  104.6851   41.7427 Du        1 LIG         0.2077 
     27 C27        28.3344  105.3431   42.5463 Du        1 LIG         0.1888 
     28 C28        28.9147  106.4779   43.3579 Du        1 LIG         0.1955 
     29 C29        29.6080  107.4468   42.4156 Du        1 LIG         0.1955 
     30 C30        30.3023  108.6242   43.1432 Du        1 LIG         0.1662 
     31 C31        29.1000  106.9142   35.8017 Du        1 LIG         0.4309 
     32 C32        28.9112  105.4690   36.2733 Du        1 LIG         0.2077 
     33 C33        28.5649  105.4536   37.7550 Du        1 LIG         0.1888 
     34 C34        29.6467  106.1756   38.5269 Du        1 LIG         0.1955 
     35 C35        29.7891  107.6101   38.0054 Du        1 LIG         0.1955 
     36 C36        30.9268  108.3870   38.6454 Du        1 LIG         0.1662 
     37 C37        25.5043  110.3326   33.9591 Du        1 LIG         0.4309 
     38 C38        25.3770  108.8760   33.4955 Du        1 LIG         0.2077 
     39 C39        26.0057  107.9350   34.5261 Du        1 LIG         0.1888 
     40 C40        27.4359  108.3614   34.7917 Du        1 LIG         0.1955 
     41 C41        27.5506  109.8388   35.1558 Du        1 LIG         0.1955 
     42 C42        28.9861  110.3424   35.1499 Du        1 LIG         0.1662 
     43 O1         20.2672  111.8586   36.0471 Du        1 LIG        -0.7360 
     44 O2         22.1163  110.5052   34.2328 Du        1 LIG        -0.5116 
     45 C43        22.2133  111.4847   33.1990 Du        1 LIG         0.0748 
     46 O3         24.7650  110.4522   35.1619 Du        1 LIG        -0.5424 
     47 O4         23.4529  113.5143   36.7183 Du        1 LIG        -0.5424 
     48 O5         26.1742  113.6777   37.4866 Du        1 LIG        -0.5116 
     49 C44        26.1532  115.0952   37.3162 Du        1 LIG         0.0748 
     50 O6         19.2046  110.9827   41.7188 Du        1 LIG        -0.7360 
     51 O7         19.4504  111.4269   38.8561 Du        1 LIG        -0.5116 
     52 C45        18.6882  112.6256   38.7086 Du        1 LIG         0.0748 
     53 O8         22.0566  112.2683   38.1038 Du        1 LIG        -0.5424 
     54 O9         21.7798  113.5507   41.5465 Du        1 LIG        -0.5424 
     55 O10        24.4359  114.2077   40.8436 Du        1 LIG        -0.5116 
     56 C46        25.0227  115.5081   40.7973 Du        1 LIG         0.0748 
     57 O11        21.9535  107.7711   45.5992 Du        1 LIG        -0.7360 
     58 O12        20.4692  109.1858   43.5520 Du        1 LIG        -0.5116 
     59 C47        19.4899  109.7920   44.3969 Du        1 LIG         0.0748 
     60 O13        21.7478  111.4225   42.5018 Du        1 LIG        -0.5424 
     61 O14        23.2958  111.1704   45.8465 Du        1 LIG        -0.5424 
     62 O15        22.0161  113.5768   45.4063 Du        1 LIG        -0.5116 
     63 C48        22.4716  114.6094   46.2815 Du        1 LIG         0.0748 
     64 O16        26.9219  105.2445   45.8976 Du        1 LIG        -0.7360 
     65 O17        24.4391  106.5944   46.3679 Du        1 LIG        -0.5116 
     66 C49        24.6005  106.8822   47.7570 Du        1 LIG         0.0748 
     67 O18        24.3232  109.1858   45.1822 Du        1 LIG        -0.5424 
     68 O19        27.9188  108.7501   45.6841 Du        1 LIG        -0.5424 
     69 O20        27.8912  111.4778   44.9475 Du        1 LIG        -0.5116 
     70 C50        28.7663  112.0331   45.9299 Du        1 LIG         0.0748 
     71 O21        28.9218  103.6217   40.9071 Du        1 LIG        -0.7360 
     72 O22        27.7235  104.3703   43.3942 Du        1 LIG        -0.5116 
     73 C51        28.7257  103.8876   44.2902 Du        1 LIG         0.0748 
     74 O23        27.8522  107.1232   44.0304 Du        1 LIG        -0.5424 
     75 O24        30.6410  106.7791   41.6673 Du        1 LIG        -0.5424 
     76 O25        31.1356  108.2100   44.1800 Du        1 LIG        -0.5116 
     77 C52        31.9555  109.3212   44.5455 Du        1 LIG         0.0748 
     78 O26        27.8568  104.8844   35.4633 Du        1 LIG        -0.7360 
     79 O27        28.4734  104.0852   38.1999 Du        1 LIG        -0.5116 
     80 C53        29.7343  103.4639   37.9469 Du        1 LIG         0.0748 
     81 O28        29.2350  106.1966   39.9013 Du        1 LIG        -0.5424 
     82 O29        30.1104  107.5366   36.5912 Du        1 LIG        -0.5424 
     83 O30        32.1901  107.7533   38.4949 Du        1 LIG        -0.5116 
     84 C54        33.1933  108.6895   38.8908 Du        1 LIG         0.0748 
     85 O31        23.9913  108.5389   33.2913 Du        1 LIG        -0.7360 
     86 O32        25.9895  106.5823   34.0299 Du        1 LIG        -0.5116 
     87 C55        26.7337  106.5601   32.8121 Du        1 LIG         0.0748 
     88 O33        27.8743  107.5988   35.9105 Du        1 LIG        -0.5424 
     89 O34        26.8624  110.6546   34.1482 Du        1 LIG        -0.5424 
     90 O35        29.5578  110.1465   33.8555 Du        1 LIG        -0.5116 
     91 C56        30.4043  111.2642   33.5835 Du        1 LIG         0.0748 
     92 H1         22.9971  115.1525   40.0018 Du        1 LIG         0.0570 
     93 H2         23.9074  113.9827   39.0162 Du        1 LIG         0.0570 
     94 H3         20.3130  111.2941   36.8217 Du        1 LIG         0.4979 
     95 H4         21.9132  111.0424   32.2494 Du        1 LIG         0.0670 
     96 H5         23.2432  111.8364   33.1268 Du        1 LIG         0.0670 
     97 H6         21.5592  112.3250   33.4315 Du        1 LIG         0.0670 
     98 H7         26.4843  115.5767   38.2368 Du        1 LIG         0.0670 
     99 H8         25.1394  115.4188   37.0810 Du        1 LIG         0.0670 
    100 H9         26.8216  115.3730   36.5006 Du        1 LIG         0.0670 
    101 H10        19.8391  110.2784   41.8692 Du        1 LIG         0.4979 
    102 H11        17.8706  112.4515   38.0095 Du        1 LIG         0.0670 
    103 H12        19.3299  113.4198   38.3269 Du        1 LIG         0.0670 
    104 H13        18.2825  112.9188   39.6771 Du        1 LIG         0.0670 
    105 H14        25.8418  115.5634   41.5133 Du        1 LIG         0.0670 
    106 H15        24.2708  116.2559   41.0474 Du        1 LIG         0.0670 
    107 H16        25.4044  115.6988   39.7936 Du        1 LIG         0.0670 
    108 H17        22.6749  107.4223   45.0704 Du        1 LIG         0.4979 
    109 H18        18.4938  109.4874   44.0756 Du        1 LIG         0.0670 
    110 H19        19.5762  110.8760   44.3333 Du        1 LIG         0.0670 
    111 H20        19.6530  109.4743   45.4267 Du        1 LIG         0.0670 
    112 H21        21.6408  114.9587   46.8946 Du        1 LIG         0.0670 
    113 H22        22.8608  115.4391   45.6914 Du        1 LIG         0.0670 
    114 H23        23.2603  114.2196   46.9252 Du        1 LIG         0.0670 
    115 H24        26.8448  105.1211   44.9491 Du        1 LIG         0.4979 
    116 H25        23.7839  106.4296   48.3190 Du        1 LIG         0.0670 
    117 H26        24.5903  107.9626   47.9077 Du        1 LIG         0.0670 
    118 H27        25.5500  106.4756   48.1044 Du        1 LIG         0.0670 
    119 H28        29.6065  112.5200   45.4342 Du        1 LIG         0.0670 
    120 H29        29.1375  111.2382   46.5767 Du        1 LIG         0.0670 
    121 H30        28.2234  112.7644   46.5284 Du        1 LIG         0.0670 
    122 H31        28.3016  104.0145   40.2873 Du        1 LIG         0.4979 
    123 H32        28.2900  103.1403   44.9529 Du        1 LIG         0.0670 
    124 H33        29.1139  104.7169   44.8818 Du        1 LIG         0.0670 
    125 H34        29.5374  103.4376   43.7189 Du        1 LIG         0.0670 
    126 H35        32.6217  109.0299   45.3579 Du        1 LIG         0.0670 
    127 H36        31.3220  110.1460   44.8733 Du        1 LIG         0.0670 
    128 H37        32.5453  109.6359   43.6858 Du        1 LIG         0.0670 
    129 H38        27.0532  105.3828   35.6294 Du        1 LIG         0.4979 
    130 H39        29.6988  102.4239   38.2722 Du        1 LIG         0.0670 
    131 H40        30.5152  103.9900   38.4952 Du        1 LIG         0.0670 
    132 H41        29.9506  103.5030   36.8789 Du        1 LIG         0.0670 
    133 H42        34.1769  108.2329   38.7871 Du        1 LIG         0.0670 
    134 H43        33.0329  108.9750   39.9306 Du        1 LIG         0.0670 
    135 H44        33.1346  109.5744   38.2575 Du        1 LIG         0.0670 
    136 H45        23.5385  108.6515   34.1308 Du        1 LIG         0.4979 
    137 H46        26.7412  105.5470   32.4095 Du        1 LIG         0.0670 
    138 H47        27.7574  106.8821   33.0055 Du        1 LIG         0.0670 
    139 H48        26.2713  107.2344   32.0909 Du        1 LIG         0.0670 
    140 H49        30.8578  111.1454   32.5993 Du        1 LIG         0.0670 
    141 H50        31.1867  111.3190   34.3400 Du        1 LIG         0.0670 
    142 H51        29.8144  112.1803   33.6039 Du        1 LIG         0.0670 
    143 H52        21.4809  113.9761   37.1205 Du        1 LIG         0.0607 
    144 H53        21.5689  112.9540   34.8872 Du        1 LIG         0.0557 
    145 H54        22.4649  110.4254   36.2839 Du        1 LIG         0.0781 
    146 H55        24.0376  112.2789   34.4163 Du        1 LIG         0.0508 
    147 H56        24.4313  111.7499   37.4501 Du        1 LIG         0.0508 
    148 H57        26.5190  112.3584   35.9400 Du        1 LIG         0.0570 
    149 H58        25.6506  113.8325   35.4452 Du        1 LIG         0.0570 
    150 H59        20.4483  112.9621   43.0048 Du        1 LIG         0.0607 
    151 H60        19.2056  112.8925   40.9735 Du        1 LIG         0.0557 
    152 H61        21.1321  110.7752   39.9197 Du        1 LIG         0.0781 
    153 H62        20.8199  113.6657   39.0614 Du        1 LIG         0.0508 
    154 H63        23.0433  112.1924   40.5831 Du        1 LIG         0.0508 
    155 H64        23.4455  109.4803   47.0111 Du        1 LIG         0.0607 
    156 H65        21.1573  109.6129   46.0622 Du        1 LIG         0.0557 
    157 H66        22.5507  109.1727   43.3893 Du        1 LIG         0.0781 
    158 H67        20.9674  111.5420   44.4640 Du        1 LIG         0.0508 
    159 H68        23.9765  111.3402   43.8799 Du        1 LIG         0.0508 
    160 H69        23.1240  113.6151   43.6186 Du        1 LIG         0.0570 
    161 H70        24.0795  113.4868   45.1105 Du        1 LIG         0.0570 
    162 H71        28.9638  107.0135   45.7656 Du        1 LIG         0.0607 
    163 H72        26.9438  106.8098   47.2314 Du        1 LIG         0.0557 
    164 H73        25.4338  107.0038   44.6016 Du        1 LIG         0.0781 
    165 H74        25.4715  108.9287   46.9304 Du        1 LIG         0.0508 
    166 H75        26.6577  109.3070   44.1298 Du        1 LIG         0.0508 
    167 H76        25.8802  111.3751   45.4130 Du        1 LIG         0.0570 
    168 H77        26.9849  110.9232   46.7274 Du        1 LIG         0.0570 
    169 H78        31.0140  105.2204   40.3737 Du        1 LIG         0.0607 
    170 H79        30.1457  104.2368   42.4531 Du        1 LIG         0.0557 
    171 H80        27.5938  105.7343   41.8472 Du        1 LIG         0.0781 
    172 H81        29.6393  106.0905   44.0713 Du        1 LIG         0.0508 
    173 H82        28.8867  107.8302   41.7058 Du        1 LIG         0.0508 
    174 H83        30.8377  109.2168   42.4253 Du        1 LIG         0.0570 
    175 H84        29.4932  109.2536   43.5686 Du        1 LIG         0.0570 
    176 H85        29.4128  106.9075   34.7511 Du        1 LIG         0.0607 
    177 H86        29.8513  104.9175   36.1051 Du        1 LIG         0.0557 
    178 H87        27.6278  105.9743   37.9250 Du        1 LIG         0.0781 
    179 H88        30.6020  105.6240   38.4140 Du        1 LIG         0.0508 
    180 H89        28.8262  108.1309   38.1425 Du        1 LIG         0.0508 
    181 H90        30.9809  109.3856   38.1869 Du        1 LIG         0.0570 
    182 H91        30.7157  108.5380   39.7132 Du        1 LIG         0.0570 
    183 H92        25.0584  111.0000   33.1998 Du        1 LIG         0.0607 
    184 H93        25.9035  108.7559   32.5622 Du        1 LIG         0.0557 
    185 H94        25.4375  107.9929   35.4724 Du        1 LIG         0.0781 
    186 H95        28.0562  108.1426   33.9100 Du        1 LIG         0.0508 
    187 H96        27.0949  110.0086   36.1454 Du        1 LIG         0.0508 
    188 H97        29.5842  109.7989   35.8928 Du        1 LIG         0.0570 
    189 H98        29.0168  111.4108   35.4134 Du        1 LIG         0.0570 
@<TRIPOS>BOND
     1    1    2 1    
     2    1   47 1    
     3    1   53 1    
     4    1  143 1    
     5    2    3 1    
     6    2   43 1    
     7    2  144 1    
     8    3    4 1    
     9    3   44 1    
    10    3  145 1    
    11    4    5 1    
    12    4   46 1    
    13    4  146 1    
    14    5    6 1    
    15    5   47 1    
    16    5  147 1    
    17    6   48 1    
    18    6  148 1    
    19    6  149 1    
    20    7    8 1    
    21    7   54 1    
    22    7   60 1    
    23    7  150 1    
    24    8    9 1    
    25    8   50 1    
    26    8  151 1    
    27    9   10 1    
    28    9   51 1    
    29    9  152 1    
    30   10   11 1    
    31   10   53 1    
    32   10  153 1    
    33   11   12 1    
    34   11   54 1    
    35   11  154 1    
    36   12   55 1    
    37   12   92 1    
    38   12   93 1    
    39   13   14 1    
    40   13   61 1    
    41   13   67 1    
    42   13  155 1    
    43   14   15 1    
    44   14   57 1    
    45   14  156 1    
    46   15   16 1    
    47   15   58 1    
    48   15  157 1    
    49   16   17 1    
    50   16   60 1    
    51   16  158 1    
    52   17   18 1    
    53   17   61 1    
    54   17  159 1    
    55   18   62 1    
    56   18  160 1    
    57   18  161 1    
    58   19   20 1    
    59   19   68 1    
    60   19   74 1    
    61   19  162 1    
    62   20   21 1    
    63   20   64 1    
    64   20  163 1    
    65   21   22 1    
    66   21   65 1    
    67   21  164 1    
    68   22   23 1    
    69   22   67 1    
    70   22  165 1    
    71   23   24 1    
    72   23   68 1    
    73   23  166 1    
    74   24   69 1    
    75   24  167 1    
    76   24  168 1    
    77   25   26 1    
    78   25   75 1    
    79   25   81 1    
    80   25  169 1    
    81   26   27 1    
    82   26   71 1    
    83   26  170 1    
    84   27   28 1    
    85   27   72 1    
    86   27  171 1    
    87   28   29 1    
    88   28   74 1    
    89   28  172 1    
    90   29   30 1    
    91   29   75 1    
    92   29  173 1    
    93   30   76 1    
    94   30  174 1    
    95   30  175 1    
    96   31   32 1    
    97   31   82 1    
    98   31   88 1    
    99   31  176 1    
   100   32   33 1    
   101   32   78 1    
   102   32  177 1    
   103   33   34 1    
   104   33   79 1    
   105   33  178 1    
   106   34   35 1    
   107   34   81 1    
   108   34  179 1    
   109   35   36 1    
   110   35   82 1    
   111   35  180 1    
   112   36   83 1    
   113   36  181 1    
   114   36  182 1    
   115   37   38 1    
   116   37   46 1    
   117   37   89 1    
   118   37  183 1    
   119   38   39 1    
   120   38   85 1    
   121   38  184 1    
   122   39   40 1    
   123   39   86 1    
   124   39  185 1    
   125   40   41 1    
   126   40   88 1    
   127   40  186 1    
   128   41   42 1    
   129   41   89 1    
   130   41  187 1    
   131   42   90 1    
   132   42  188 1    
   133   42  189 1    
   134   43   94 1    
   135   44   45 1    
   136   45   95 1    
   137   45   96 1    
   138   45   97 1    
   139   48   49 1    
   140   49   98 1    
   141   49   99 1    
   142   49  100 1    
   143   50  101 1    
   144   51   52 1    
   145   52  102 1    
   146   52  103 1    
   147   52  104 1    
   148   55   56 1    
   149   56  105 1    
   150   56  106 1    
   151   56  107 1    
   152   57  108 1    
   153   58   59 1    
   154   59  109 1    
   155   59  110 1    
   156   59  111 1    
   157   62   63 1    
   158   63  112 1    
   159   63  113 1    
   160   63  114 1    
   161   64  115 1    
   162   65   66 1    
   163   66  116 1    
   164   66  117 1    
   165   66  118 1    
   166   69   70 1    
   167   70  119 1    
   168   70  120 1    
   169   70  121 1    
   170   71  122 1    
   171   72   73 1    
   172   73  123 1    
   173   73  124 1    
   174   73  125 1    
   175   76   77 1    
   176   77  126 1    
   177   77  127 1    
   178   77  128 1    
   179   78  129 1    
   180   79   80 1    
   181   80  130 1    
   182   80  131 1    
   183   80  132 1    
   184   83   84 1    
   185   84  133 1    
   186   84  134 1    
   187   84  135 1    
   188   85  136 1    
   189   86   87 1    
   190   87  137 1    
   191   87  138 1    
   192   87  139 1    
   193   90   91 1    
   194   91  140 1    
   195   91  141 1    
   196   91  142 1    
@<TRIPOS>SUBSTRUCTURE
     1 LIG         1 GROUP             0       ****    0 ROOT    
