@<TRIPOS>MOLECULE
LIG
41 43
SMALL
USER_CHARGES
@<TRIPOS>ATOM
      1 C1         25.4929  106.9890   45.3625 AA             0 LIG     -0.148984
      2 C2         24.3361  107.8058   45.5038 AB             0 LIG     -0.148984
      3 C3         26.7687  107.5589   45.5339 AD             0 LIG     -0.216162
      4 C4         24.4693  109.1725   45.8096 AE             0 LIG     -0.191448
      5 C5         27.2542  112.8183   44.1461 AF             0 LIG     -0.191448
      6 C6         28.2445  112.9265   43.1564 AH             0 LIG     -0.201273
      7 C7         29.2894  110.8730   43.9668 AI             0 LIG     -0.282378
      8 C8         26.9149  108.9404   45.8041 AJ             0 LIG     0.090825
      9 C9         28.2869  110.7424   44.9516 AK             0 LIG     0.090825
     10 C10        25.7474  109.7386   45.9485 AN             0 LIG     0.113170
     11 C11        27.2648  111.7233   45.0313 AO             0 LIG     0.113170
     12 C12        29.2578  111.9564   43.0645 AP             0 LIG     0.139586
     13 C13        31.1148  110.7022   50.6111 AQ             0 LIG     -0.327670
     14 C14        33.1138  109.5038   49.8679 AV             0 LIG     -0.327670
     15 C15        29.8946  110.1005   47.7686 AW             0 LIG     -0.018552
     16 C16        29.3261  109.2239   46.5930 AX             0 LIG     0.030051
     17 C17        31.0619  109.3738   48.5057 AY             0 LIG     0.155353
     18 N1         28.1647  109.5885   45.7579 AZ             0 LIG     -0.186524
     19 N2         31.8758  110.1975   49.4385 BB             0 LIG     0.134459
     20 S1         25.9124  111.4894   46.1419 BC             0 LIG     -0.184949
     21 CL1        30.4232  112.0420   41.7957 BD             0 LIG     -0.163674
     22 H1         25.3747  105.9676   45.0636 BF             0 LIG     0.167367
     23 H2         23.3580  107.3906   45.3093 BG             0 LIG     0.167367
     24 H3         27.6304  106.9321   45.3532 BH             0 LIG     0.144463
     25 H4         23.5970  109.8007   45.8606 BJ             0 LIG     0.182657
     26 H5         26.4423  113.5275   44.1879 BK             0 LIG     0.182657
     27 H6         28.1848  113.7152   42.4190 BL             0 LIG     0.185066
     28 H7         30.0324  110.1007   43.8283 BM             0 LIG     0.159917
     29 H8         30.7083  109.8814   51.2034 BN             0 LIG     0.163775
     30 H9         30.2946  111.3473   50.3037 BO             0 LIG     0.163775
     31 H10        31.7598  111.2910   51.2616 BP             0 LIG     0.163775
     32 H11        32.9038  108.6105   50.4586 BQ             0 LIG     0.163775
     33 H12        33.7362  110.1499   50.4833 BS             0 LIG     0.163775
     34 H13        33.7317  109.1995   49.0208 BT             0 LIG     0.163775
     35 H14        30.2472  111.0506   47.3725 BU             0 LIG     0.042423
     36 H15        29.1123  110.3773   48.4797 BV             0 LIG     0.042423
     37 H16        30.1354  109.0859   45.8709 BW             0 LIG     0.092460
     38 H17        29.1148  108.2436   46.9953 BX             0 LIG     0.092460
     39 H18        30.6611  108.5069   49.0248 BY             0 LIG     0.021392
     40 H19        31.7168  108.9777   47.7336 BZ             0 LIG     0.021392
     41 H20        32.1865  111.0077   48.9196 CB             0 LIG     0.237587
@<TRIPOS>BOND
        1  1  2  2
        2  1  3  1
        3  1  22  1
        4  2  4  1
        5  2  23  1
        6  3  8  2
        7  3  24  1
        8  4  10  2
        9  4  25  1
        10  5  6  1
        11  5  11  2
        12  5  26  1
        13  6  12  2
        14  6  27  1
        15  7  9  2
        16  7  12  1
        17  7  28  1
        18  8  10  1
        19  8  18  1
        20  9  11  1
        21  9  18  1
        22  10  20  1
        23  11  20  1
        24  12  21  1
        25  13  19  1
        26  13  29  1
        27  13  30  1
        28  13  31  1
        29  14  19  1
        30  14  32  1
        31  14  33  1
        32  14  34  1
        33  15  16  1
        34  15  17  1
        35  15  35  1
        36  15  36  1
        37  16  18  1
        38  16  37  1
        39  16  38  1
        40  17  19  1
        41  17  39  1
        42  17  40  1
        43  19  41  1
@<TRIPOS>SUBSTRUCTURE
       1 LIG             1 RESIDUE    0 **** ROOT      0

