PMT1appS
                    3D
 Schrodinger Suite 2019-4.
 41 43  0  0  1  0            999 V2000
   25.4919  106.9801   46.0574 C   0  0  0  0  0  0
   29.2457  111.9601   43.0716 C   0  0  0  0  0  0
   24.3355  107.7860   46.0283 C   0  0  0  0  0  0
   28.1866  112.8875   43.1189 C   0  0  0  0  0  0
   26.7738  107.5638   46.1062 C   0  0  0  0  0  0
   29.3045  110.8879   43.9983 C   0  0  0  0  0  0
   24.4682  109.1880   46.0682 C   0  0  0  0  0  0
   27.1983  112.7627   44.1052 C   0  0  0  0  0  0
   26.9251  108.9681   46.0120 C   0  0  0  0  0  0
   28.2814  110.7254   44.9602 C   0  0  0  0  0  0
   25.7535  109.7644   46.0715 C   0  0  0  0  0  0
   27.2402  111.6883   45.0098 C   0  0  0  0  0  0
   31.0013  111.0961   46.7894 C   0  0  0  0  0  0
   32.3356  109.3056   48.3356 C   0  0  0  0  0  0
   30.4624  107.7492   48.5584 C   0  0  0  0  0  0
   29.3605  109.0549   46.4738 C   0  0  0  0  0  0
   30.1170  110.0066   47.4572 C   0  0  1  0  0  0
   28.1863  109.5624   45.7600 N   0  0  0  0  0  0
   30.8624  109.1803   48.4641 N   0  3  0  0  0  0
   25.9029  111.5116   46.1327 S   0  0  0  0  0  0
   25.3887  105.9039   46.0151 H   0  0  0  0  0  0
   29.9761  112.0476   42.2777 H   0  0  0  0  0  0
   23.3546  107.3296   45.9745 H   0  0  0  0  0  0
   28.1045  113.6827   42.3859 H   0  0  0  0  0  0
   27.6231  106.9075   46.1489 H   0  0  0  0  0  0
   30.1061  110.1745   43.8784 H   0  0  0  0  0  0
   23.5901  109.8133   46.0683 H   0  0  0  0  0  0
   26.3562  113.4397   44.1406 H   0  0  0  0  0  0
   30.5079  111.5463   45.9253 H   0  0  0  0  0  0
   31.9631  110.7132   46.4449 H   0  0  0  0  0  0
   31.2120  111.9322   47.4657 H   0  0  0  0  0  0
   32.6823  108.8903   47.3887 H   0  0  0  0  0  0
   32.8584  108.7747   49.1350 H   0  0  0  0  0  0
   32.6685  110.3412   48.3827 H   0  0  0  0  0  0
   30.5573  107.2546   47.5891 H   0  0  0  0  0  0
   29.4346  107.6361   48.9052 H   0  0  0  0  0  0
   31.0822  107.2055   49.2781 H   0  0  0  0  0  0
   30.0405  108.6449   45.7315 H   0  0  0  0  0  0
   29.0318  108.1785   47.0292 H   0  0  0  0  0  0
   29.3525  110.5592   48.0154 H   0  0  0  0  0  0
   30.6322  109.5821   49.3676 H   0  0  0  0  0  0
  1  3  2  0  0  0
  1  5  1  0  0  0
  1 21  1  0  0  0
  2  4  2  0  0  0
  2  6  1  0  0  0
  2 22  1  0  0  0
  3  7  1  0  0  0
  3 23  1  0  0  0
  4  8  1  0  0  0
  4 24  1  0  0  0
  5  9  2  0  0  0
  5 25  1  0  0  0
  6 10  2  0  0  0
  6 26  1  0  0  0
  7 11  2  0  0  0
  7 27  1  0  0  0
  8 12  2  0  0  0
  8 28  1  0  0  0
  9 11  1  0  0  0
  9 18  1  0  0  0
 10 12  1  0  0  0
 10 18  1  0  0  0
 11 20  1  0  0  0
 12 20  1  0  0  0
 13 17  1  0  0  0
 13 29  1  0  0  0
 13 30  1  0  0  0
 13 31  1  0  0  0
 14 19  1  0  0  0
 14 32  1  0  0  0
 14 33  1  0  0  0
 14 34  1  0  0  0
 15 19  1  0  0  0
 15 35  1  0  0  0
 15 36  1  0  0  0
 15 37  1  0  0  0
 16 17  1  0  0  0
 16 18  1  0  0  0
 16 38  1  0  0  0
 16 39  1  0  0  0
 17 19  1  0  0  0
 17 40  1  0  0  0
 19 41  1  0  0  0
M  CHG  1  19   1
M  END
> <s_m_entry_id>
627

> <s_m_Source_Path>
/home/emilio/Dropbox/SAMPL9-eglab/mCD/ligsdfs

> <s_m_Source_File>
PMT1appS.sdf

> <i_m_Source_File_Index>
1

> <r_epik_Ionization_Penalty>
  0.0045

> <r_epik_State_Penalty>
  0.0032

> <i_epik_Tot_Q>
1

> <s_m_job_name>
ligprep_4

> <i_f3d_flags>
0

$$$$
