@<TRIPOS>MOLECULE
LIG
41 43
SMALL
USER_CHARGES
@<TRIPOS>ATOM
      1 C1         25.4919  106.9801   46.0574 AA             0 LIG     -0.150100
      2 C2         29.2457  111.9601   43.0716 AB             0 LIG     -0.150100
      3 C3         24.3355  107.7860   46.0283 AD             0 LIG     -0.150100
      4 C4         28.1866  112.8875   43.1189 AE             0 LIG     -0.150100
      5 C5         26.7738  107.5638   46.1062 AF             0 LIG     -0.220762
      6 C6         29.3045  110.8879   43.9983 AH             0 LIG     -0.220762
      7 C7         24.4682  109.1880   46.0682 AI             0 LIG     -0.190531
      8 C8         27.1983  112.7627   44.1052 AJ             0 LIG     -0.190531
      9 C9         26.9251  108.9681   46.0120 AK             0 LIG     0.084657
     10 C10        28.2814  110.7254   44.9602 AN             0 LIG     0.084657
     11 C11        25.7535  109.7644   46.0715 AO             0 LIG     0.115853
     12 C12        27.2402  111.6883   45.0098 AP             0 LIG     0.115853
     13 C13        31.0013  111.0961   46.7894 AQ             0 LIG     -0.353988
     14 C14        32.3356  109.3056   48.3356 AV             0 LIG     -0.185375
     15 C15        30.4624  107.7492   48.5584 AW             0 LIG     -0.185375
     16 C16        29.3605  109.0549   46.4738 AX             0 LIG     0.002465
     17 C17        30.1170  110.0066   47.4572 AY             1 LIG     0.085935
     18 N1         28.1863  109.5624   45.7600 AZ             0 LIG     -0.190232
     19 N2         30.8624  109.1803   48.4641 BB             0 LIG     0.109280
     20 S1         25.9029  111.5116   46.1327 BC             0 LIG     -0.188456
     21 H1         25.3887  105.9039   46.0151 BD             0 LIG     0.166423
     22 H2         29.9761  112.0476   42.2777 BF             0 LIG     0.166423
     23 H3         23.3546  107.3296   45.9745 BG             0 LIG     0.166423
     24 H4         28.1045  113.6827   42.3859 BH             0 LIG     0.166423
     25 H5         27.6231  106.9075   46.1489 BJ             0 LIG     0.128375
     26 H6         30.1061  110.1745   43.8784 BK             0 LIG     0.128375
     27 H7         23.5901  109.8133   46.0683 BL             0 LIG     0.178440
     28 H8         26.3562  113.4397   44.1406 BM             0 LIG     0.178440
     29 H9         30.5079  111.5463   45.9253 BN             0 LIG     0.122803
     30 H10        31.9631  110.7132   46.4449 BO             0 LIG     0.122803
     31 H11        31.2120  111.9322   47.4657 BP             0 LIG     0.122803
     32 H12        32.6823  108.8903   47.3887 BQ             0 LIG     0.123915
     33 H13        32.8584  108.7747   49.1350 BS             0 LIG     0.123915
     34 H14        32.6685  110.3412   48.3827 BT             0 LIG     0.123915
     35 H15        30.5573  107.2546   47.5891 BU             0 LIG     0.123915
     36 H16        29.4346  107.6361   48.9052 BV             0 LIG     0.123915
     37 H17        31.0822  107.2055   49.2781 BW             0 LIG     0.123915
     38 H18        30.0405  108.6449   45.7315 BX             0 LIG     0.090289
     39 H19        29.0318  108.1785   47.0292 BY             0 LIG     0.090289
     40 H20        29.3525  110.5592   48.0154 BZ             0 LIG     0.141962
     41 H21        30.6322  109.5821   49.3676 CB             0 LIG     0.213953
@<TRIPOS>BOND
        1  1  3  2
        2  1  5  1
        3  1  21  1
        4  2  4  2
        5  2  6  1
        6  2  22  1
        7  3  7  1
        8  3  23  1
        9  4  8  1
        10  4  24  1
        11  5  9  2
        12  5  25  1
        13  6  10  2
        14  6  26  1
        15  7  11  2
        16  7  27  1
        17  8  12  2
        18  8  28  1
        19  9  11  1
        20  9  18  1
        21  10  12  1
        22  10  18  1
        23  11  20  1
        24  12  20  1
        25  13  17  1
        26  13  29  1
        27  13  30  1
        28  13  31  1
        29  14  19  1
        30  14  32  1
        31  14  33  1
        32  14  34  1
        33  15  19  1
        34  15  35  1
        35  15  36  1
        36  15  37  1
        37  16  17  1
        38  16  18  1
        39  16  38  1
        40  16  39  1
        41  17  19  1
        42  17  40  1
        43  19  41  1
@<TRIPOS>SUBSTRUCTURE
       1 LIG             1 RESIDUE    0 **** ROOT      0

