@<TRIPOS>MOLECULE
LIG
41 43
SMALL
USER_CHARGES
@<TRIPOS>ATOM
      1 C1         25.6363  106.9328   45.5973 PA             0 LIG     -0.151978
      2 C2         29.2232  111.9301   43.1128 PB             0 LIG     -0.151978
      3 C3         24.5222  107.6780   45.8451 PD             0 LIG     -0.151978
      4 C4         28.2259  112.8666   43.0909 PE             0 LIG     -0.151978
      5 C5         26.8705  107.5719   45.5339 PF             0 LIG     -0.221382
      6 C6         29.2366  110.8069   43.9921 PH             0 LIG     -0.221382
      7 C7         24.5718  109.0424   46.2212 PI             0 LIG     -0.192007
      8 C8         27.1973  112.8224   44.1179 PJ             0 LIG     -0.192007
      9 C9         26.9919  108.9725   45.7903 PK             0 LIG     0.086899
     10 C10        28.2004  110.7418   44.9144 PN             0 LIG     0.086899
     11 C11        25.8185  109.7253   46.1495 PO             0 LIG     0.115779
     12 C12        27.2240  111.7124   44.9873 PP             0 LIG     0.115779
     13 C13        32.3590  109.5151   50.6446 PQ             0 LIG     -0.319173
     14 C14        32.2022  111.5505   49.3257 PV             0 LIG     -0.319173
     15 C15        29.8452  110.3482   47.7678 PW             0 LIG     -0.018118
     16 C16        29.2924  109.2881   46.7701 PX             0 LIG     0.036275
     17 C17        30.8180  109.6998   48.7630 PY             0 LIG     0.012268
     18 N1         28.1806  109.6068   45.7308 PZ             0 LIG     -0.191498
     19 N2         31.3672  110.4808   49.9108 QB             0 LIG     0.153200
     20 S1         25.9311  111.4972   46.1207 QC             0 LIG     -0.201542
     21 H1         25.6190  105.8781   45.3133 QD             0 LIG     0.160898
     22 H2         29.9982  112.0403   42.3912 QF             0 LIG     0.160898
     23 H3         23.5639  107.1229   45.9451 QG             0 LIG     0.160898
     24 H4         28.3206  113.6601   42.2966 QH             0 LIG     0.160898
     25 H5         27.7316  106.9741   45.2139 QJ             0 LIG     0.134456
     26 H6         29.9746  110.0038   43.8621 QK             0 LIG     0.134456
     27 H7         23.7047  109.5962   46.4089 QL             0 LIG     0.174337
     28 H8         26.3826  113.5395   44.1388 QM             0 LIG     0.174337
     29 H9         32.5518  110.0154   51.6060 QN             0 LIG     0.158404
     30 H10        33.2664  109.4120   50.0996 QO             0 LIG     0.158404
     31 H11        31.9075  108.5247   50.7713 QP             0 LIG     0.158404
     32 H12        32.9213  111.0177   48.6754 QQ             0 LIG     0.158404
     33 H13        32.7458  112.0682   50.1371 QS             0 LIG     0.158404
     34 H14        31.5772  112.2359   48.7806 QT             0 LIG     0.158404
     35 H15        30.2636  111.1238   47.1575 QU             0 LIG     0.041463
     36 H16        29.0843  110.9854   48.2981 QV             0 LIG     0.041463
     37 H17        30.1561  109.0852   46.0801 QW             0 LIG     0.085391
     38 H18        29.1096  108.3120   47.2864 QX             0 LIG     0.085391
     39 H19        30.4235  108.7277   49.0389 QY             0 LIG     0.073022
     40 H20        31.7440  109.4668   48.2133 QZ             0 LIG     0.073022
     41 H21        30.6646  110.8576   50.5574 RB             0 LIG     0.265740
@<TRIPOS>BOND
        1  1  3  2
        2  1  5  1
        3  1  21  1
        4  2  4  2
        5  2  6  1
        6  2  22  1
        7  3  7  1
        8  3  23  1
        9  4  8  1
        10  4  24  1
        11  5  9  2
        12  5  25  1
        13  6  10  2
        14  6  26  1
        15  7  11  2
        16  7  27  1
        17  8  12  2
        18  8  28  1
        19  9  11  1
        20  9  18  1
        21  10  12  1
        22  10  18  1
        23  11  20  1
        24  12  20  1
        25  13  19  1
        26  13  29  1
        27  13  30  1
        28  13  31  1
        29  14  19  1
        30  14  32  1
        31  14  33  1
        32  14  34  1
        33  15  16  1
        34  15  17  1
        35  15  35  1
        36  15  36  1
        37  16  18  1
        38  16  37  1
        39  16  38  1
        40  17  19  1
        41  17  39  1
        42  17  40  1
        43  19  41  1
@<TRIPOS>SUBSTRUCTURE
       1 LIG             1 RESIDUE    0 **** ROOT      0

