TDZNR1appS
                    3D
 Schrodinger Suite 2019-4.
 52 55  0  0  1  0            999 V2000
   25.4948  106.9584   45.6712 C   0  0  0  0  0  0
   24.3477  107.7595   45.8274 C   0  0  0  0  0  0
   26.7788  107.5396   45.7216 C   0  0  0  0  0  0
   24.4808  109.1461   46.0303 C   0  0  0  0  0  0
   27.2332  112.8019   44.1189 C   0  0  0  0  0  0
   28.2377  112.9185   43.1412 C   0  0  0  0  0  0
   29.2783  110.8715   43.9637 C   0  0  0  0  0  0
   26.9263  108.9378   45.9035 C   0  0  0  0  0  0
   28.2642  110.7306   44.9376 C   0  0  0  0  0  0
   25.7594  109.7321   46.0540 C   0  0  0  0  0  0
   27.2381  111.7062   45.0048 C   0  0  0  0  0  0
   29.2591  111.9566   43.0634 C   0  0  0  0  0  0
   31.1131  108.0476   50.7802 C   0  0  0  0  0  0
   31.5260  109.1631   51.7317 C   0  0  0  0  0  0
   30.2563  108.6241   49.6608 C   0  0  0  0  0  0
   32.2104  110.2850   50.9309 C   0  0  0  0  0  0
   30.8828  109.7511   48.8677 C   0  0  1  0  0  0
   31.9852  111.9907   49.1826 C   0  0  0  0  0  0
   29.8227  113.2024   40.5067 C   0  0  0  0  0  0
   29.8517  110.2172   47.7769 C   0  0  0  0  0  0
   29.2952  109.2174   46.6743 C   0  0  0  0  0  0
   28.1697  109.5843   45.7570 N   0  0  0  0  0  0
   31.3340  110.8193   49.8325 N   0  3  2  0  0  0
   25.9058  111.4934   46.1437 S   0  0  0  0  0  0
   30.4720  112.0949   41.7859 S   0  0  0  0  0  0
   25.3806  105.9038   45.4554 H   0  0  0  0  0  0
   23.3649  107.3187   45.7403 H   0  0  0  0  0  0
   27.6388  106.9161   45.5313 H   0  0  0  0  0  0
   23.6000  109.7647   46.0936 H   0  0  0  0  0  0
   26.4262  113.5199   44.1501 H   0  0  0  0  0  0
   28.2033  113.7198   42.4152 H   0  0  0  0  0  0
   30.0219  110.1016   43.8445 H   0  0  0  0  0  0
   31.9825  107.5524   50.3464 H   0  0  0  0  0  0
   30.5457  107.2771   51.3057 H   0  0  0  0  0  0
   30.6435  109.5391   52.2567 H   0  0  0  0  0  0
   32.1972  108.7559   52.4960 H   0  0  0  0  0  0
   30.1282  107.8342   48.9325 H   0  0  0  0  0  0
   29.2901  108.9610   50.0560 H   0  0  0  0  0  0
   32.4788  111.0821   51.6242 H   0  0  0  0  0  0
   33.1383  109.9024   50.4988 H   0  0  0  0  0  0
   31.7728  109.3467   48.3738 H   0  0  0  0  0  0
   32.8409  111.6723   48.5814 H   0  0  0  0  0  0
   32.3468  112.6932   49.9365 H   0  0  0  0  0  0
   31.2849  112.5321   48.5433 H   0  0  0  0  0  0
   30.5019  113.2197   39.6541 H   0  0  0  0  0  0
   29.7234  114.2211   40.8817 H   0  0  0  0  0  0
   28.8501  112.8504   40.1656 H   0  0  0  0  0  0
   29.0350  110.7815   48.2235 H   0  0  0  0  0  0
   30.4056  110.9295   47.1694 H   0  0  0  0  0  0
   30.1475  108.9639   46.0340 H   0  0  0  0  0  0
   29.0496  108.2703   47.1490 H   0  0  0  0  0  0
   30.4965  111.1609   50.2907 H   0  0  0  0  0  0
  1  2  2  0  0  0
  1  3  1  0  0  0
  1 26  1  0  0  0
  2  4  1  0  0  0
  2 27  1  0  0  0
  3  8  2  0  0  0
  3 28  1  0  0  0
  4 10  2  0  0  0
  4 29  1  0  0  0
  5  6  2  0  0  0
  5 11  1  0  0  0
  5 30  1  0  0  0
  6 12  1  0  0  0
  6 31  1  0  0  0
  7  9  1  0  0  0
  7 12  2  0  0  0
  7 32  1  0  0  0
  8 10  1  0  0  0
  8 22  1  0  0  0
  9 11  2  0  0  0
  9 22  1  0  0  0
 10 24  1  0  0  0
 11 24  1  0  0  0
 12 25  1  0  0  0
 13 14  1  0  0  0
 13 15  1  0  0  0
 13 33  1  0  0  0
 13 34  1  0  0  0
 14 16  1  0  0  0
 14 35  1  0  0  0
 14 36  1  0  0  0
 15 17  1  0  0  0
 15 37  1  0  0  0
 15 38  1  0  0  0
 16 23  1  0  0  0
 16 39  1  0  0  0
 16 40  1  0  0  0
 17 20  1  0  0  0
 17 23  1  0  0  0
 17 41  1  0  0  0
 18 23  1  0  0  0
 18 42  1  0  0  0
 18 43  1  0  0  0
 18 44  1  0  0  0
 19 25  1  0  0  0
 19 45  1  0  0  0
 19 46  1  0  0  0
 19 47  1  0  0  0
 20 21  1  0  0  0
 20 48  1  0  0  0
 20 49  1  0  0  0
 21 22  1  0  0  0
 21 50  1  0  0  0
 21 51  1  0  0  0
 23 52  1  0  0  0
M  CHG  1  23   1
M  END
> <s_m_entry_id>
631

> <s_m_Source_Path>
/home/emilio/Dropbox/SAMPL9-eglab/mCD/ligsdfs

> <s_m_Source_File>
TDZNR1appS.sdf

> <i_m_Source_File_Index>
1

> <r_epik_Ionization_Penalty>
  0.0017

> <r_epik_State_Penalty>
  0.0011

> <i_epik_Tot_Q>
1

> <s_m_job_name>
ligprep_4

> <i_f3d_flags>
0

$$$$
