TDZNS1appS
                    3D
 Schrodinger Suite 2019-4.
 52 55  0  0  1  0            999 V2000
   25.5020  106.9687   45.8213 C   0  0  0  0  0  0
   24.3558  107.7750   45.9841 C   0  0  0  0  0  0
   26.7845  107.5538   45.8119 C   0  0  0  0  0  0
   24.4923  109.1633   46.1339 C   0  0  0  0  0  0
   27.1920  112.7669   44.0897 C   0  0  0  0  0  0
   28.1960  112.8854   43.1131 C   0  0  0  0  0  0
   29.3078  110.8993   44.0154 C   0  0  0  0  0  0
   26.9349  108.9530   45.9190 C   0  0  0  0  0  0
   28.2716  110.7382   44.9597 C   0  0  0  0  0  0
   25.7687  109.7486   46.0798 C   0  0  0  0  0  0
   27.2262  111.6927   44.9957 C   0  0  0  0  0  0
   29.2506  111.9522   43.0737 C   0  0  0  0  0  0
   29.1321  110.7307   50.6671 C   0  0  0  0  0  0
   29.9271  112.0217   50.9270 C   0  0  0  0  0  0
   29.9962  109.6745   49.9656 C   0  0  0  0  0  0
   30.6450  112.5225   49.6600 C   0  0  0  0  0  0
   30.6682  110.2285   48.6882 C   0  0  1  0  0  0
   32.3938  111.9172   47.9988 C   0  0  0  0  0  0
   29.6619  112.7240   40.3045 C   0  0  0  0  0  0
   29.6668  110.5150   47.5306 C   0  0  0  0  0  0
   29.2631  109.2753   46.7030 C   0  0  0  0  0  0
   28.1810  109.5794   45.7514 N   0  0  0  0  0  0
   31.4733  111.4354   49.0645 N   0  3  1  0  0  0
   25.9033  111.5025   46.1392 S   0  0  0  0  0  0
   30.4684  112.1081   41.8072 S   0  0  0  0  0  0
   25.4005  105.9032   45.6997 H   0  0  0  0  0  0
   23.3709  107.3320   45.9698 H   0  0  0  0  0  0
   27.6277  106.9028   45.6621 H   0  0  0  0  0  0
   23.6256  109.7941   46.2670 H   0  0  0  0  0  0
   26.3787  113.4734   44.1326 H   0  0  0  0  0  0
   28.1436  113.6867   42.3888 H   0  0  0  0  0  0
   30.1019  110.1790   43.9714 H   0  0  0  0  0  0
   28.7556  110.3389   51.6136 H   0  0  0  0  0  0
   28.2476  110.9543   50.0746 H   0  0  0  0  0  0
   29.2554  112.7959   51.3057 H   0  0  0  0  0  0
   30.6556  111.8559   51.7240 H   0  0  0  0  0  0
   30.7696  109.3344   50.6582 H   0  0  0  0  0  0
   29.3986  108.7894   49.7445 H   0  0  0  0  0  0
   29.9235  112.8967   48.9296 H   0  0  0  0  0  0
   31.2854  113.3648   49.9229 H   0  0  0  0  0  0
   31.3832  109.4708   48.3339 H   0  0  0  0  0  0
   31.8571  112.4072   47.1798 H   0  0  0  0  0  0
   32.9837  111.0962   47.5864 H   0  0  0  0  0  0
   33.0942  112.6484   48.4151 H   0  0  0  0  0  0
   30.3825  112.7555   39.4868 H   0  0  0  0  0  0
   29.2751  113.7327   40.4506 H   0  0  0  0  0  0
   28.8434  112.0643   40.0152 H   0  0  0  0  0  0
   28.7675  110.9825   47.9201 H   0  0  0  0  0  0
   30.0862  111.2484   46.8421 H   0  0  0  0  0  0
   30.1117  108.8783   46.1410 H   0  0  0  0  0  0
   28.9592  108.4669   47.3662 H   0  0  0  0  0  0
   32.0799  111.1156   49.8072 H   0  0  0  0  0  0
  1  2  2  0  0  0
  1  3  1  0  0  0
  1 26  1  0  0  0
  2  4  1  0  0  0
  2 27  1  0  0  0
  3  8  2  0  0  0
  3 28  1  0  0  0
  4 10  2  0  0  0
  4 29  1  0  0  0
  5  6  2  0  0  0
  5 11  1  0  0  0
  5 30  1  0  0  0
  6 12  1  0  0  0
  6 31  1  0  0  0
  7  9  1  0  0  0
  7 12  2  0  0  0
  7 32  1  0  0  0
  8 10  1  0  0  0
  8 22  1  0  0  0
  9 11  2  0  0  0
  9 22  1  0  0  0
 10 24  1  0  0  0
 11 24  1  0  0  0
 12 25  1  0  0  0
 13 14  1  0  0  0
 13 15  1  0  0  0
 13 33  1  0  0  0
 13 34  1  0  0  0
 14 16  1  0  0  0
 14 35  1  0  0  0
 14 36  1  0  0  0
 15 17  1  0  0  0
 15 37  1  0  0  0
 15 38  1  0  0  0
 16 23  1  0  0  0
 16 39  1  0  0  0
 16 40  1  0  0  0
 17 20  1  0  0  0
 17 23  1  0  0  0
 17 41  1  0  0  0
 18 23  1  0  0  0
 18 42  1  0  0  0
 18 43  1  0  0  0
 18 44  1  0  0  0
 19 25  1  0  0  0
 19 45  1  0  0  0
 19 46  1  0  0  0
 19 47  1  0  0  0
 20 21  1  0  0  0
 20 48  1  0  0  0
 20 49  1  0  0  0
 21 22  1  0  0  0
 21 50  1  0  0  0
 21 51  1  0  0  0
 23 52  1  0  0  0
M  CHG  1  23   1
M  END
> <s_m_entry_id>
633

> <s_m_Source_Path>
/home/emilio/Dropbox/SAMPL9-eglab/mCD/ligsdfs

> <s_m_Source_File>
TDZNS1appS.sdf

> <i_m_Source_File_Index>
1

> <r_epik_Ionization_Penalty>
  0.0017

> <r_epik_State_Penalty>
  0.0011

> <i_epik_Tot_Q>
1

> <s_m_job_name>
ligprep_4

> <i_f3d_flags>
0

$$$$
