@<TRIPOS>MOLECULE
LIG
52 55
SMALL
USER_CHARGES
@<TRIPOS>ATOM
      1 C1         25.5020  106.9687   45.8213 AA             0 LIG     -0.151741
      2 C2         24.3558  107.7750   45.9841 AB             0 LIG     -0.151741
      3 C3         26.7845  107.5538   45.8119 AD             0 LIG     -0.220252
      4 C4         24.4923  109.1633   46.1339 AE             0 LIG     -0.194616
      5 C5         27.1920  112.7669   44.0897 AF             0 LIG     -0.194616
      6 C6         28.1960  112.8854   43.1131 AH             0 LIG     -0.194616
      7 C7         29.3078  110.8993   44.0154 AI             0 LIG     -0.276550
      8 C8         26.9349  108.9530   45.9190 AJ             0 LIG     0.084603
      9 C9         28.2716  110.7382   44.9597 AK             0 LIG     0.084603
     10 C10        25.7687  109.7486   46.0798 AN             0 LIG     0.112404
     11 C11        27.2262  111.6927   44.9957 AO             0 LIG     0.112404
     12 C12        29.2506  111.9522   43.0737 AP             0 LIG     0.163041
     13 C13        29.1321  110.7307   50.6671 AQ             0 LIG     -0.029878
     14 C14        29.9271  112.0217   50.9270 AV             0 LIG     -0.034345
     15 C15        29.9962  109.6745   49.9656 AW             0 LIG     -0.054555
     16 C16        30.6450  112.5225   49.6600 AX             0 LIG     0.011138
     17 C17        30.6682  110.2285   48.6882 AY             1 LIG     0.149935
     18 C18        32.3938  111.9172   47.9988 AZ             0 LIG     -0.244054
     19 C19        29.6619  112.7240   40.3045 BB             0 LIG     -0.160589
     20 C20        29.6668  110.5150   47.5306 BC             0 LIG     -0.033239
     21 C21        29.2631  109.2753   46.7030 BD             0 LIG     0.039575
     22 N1         28.1810  109.5794   45.7514 BF             0 LIG     -0.187004
     23 N2         31.4733  111.4354   49.0645 BG             1 LIG     -0.070769
     24 S1         25.9033  111.5025   46.1392 BH             0 LIG     -0.197900
     25 S2         30.4684  112.1081   41.8072 BJ             0 LIG     -0.258446
     26 H1         25.4005  105.9032   45.6997 BK             0 LIG     0.161610
     27 H2         23.3709  107.3320   45.9698 BL             0 LIG     0.161610
     28 H3         27.6277  106.9028   45.6621 BM             0 LIG     0.136076
     29 H4         23.6256  109.7941   46.2670 BN             0 LIG     0.176324
     30 H5         26.3787  113.4734   44.1326 BO             0 LIG     0.176324
     31 H6         28.1436  113.6867   42.3888 BP             0 LIG     0.176324
     32 H7         30.1019  110.1790   43.9714 BQ             0 LIG     0.140791
     33 H8         28.7556  110.3389   51.6136 BS             0 LIG     0.046381
     34 H9         28.2476  110.9543   50.0746 BT             0 LIG     0.046381
     35 H10        29.2554  112.7959   51.3057 BU             0 LIG     0.049941
     36 H11        30.6556  111.8559   51.7240 BV             0 LIG     0.049941
     37 H12        30.7696  109.3344   50.6582 BW             0 LIG     0.046927
     38 H13        29.3986  108.7894   49.7445 BX             0 LIG     0.046927
     39 H14        29.9235  112.8967   48.9296 BY             0 LIG     0.081886
     40 H15        31.2854  113.3648   49.9229 BZ             0 LIG     0.081886
     41 H16        31.3832  109.4708   48.3339 CB             0 LIG     0.038290
     42 H17        31.8571  112.4072   47.1798 CI             0 LIG     0.142123
     43 H18        32.9837  111.0962   47.5864 CJ             0 LIG     0.142123
     44 H19        33.0942  112.6484   48.4151 CK             0 LIG     0.142123
     45 H20        30.3825  112.7555   39.4868 CM             0 LIG     0.110774
     46 H21        29.2751  113.7327   40.4506 CN             0 LIG     0.110774
     47 H22        28.8434  112.0643   40.0152 CT             0 LIG     0.110774
     48 H23        28.7675  110.9825   47.9201 CW             0 LIG     0.042019
     49 H24        30.0862  111.2484   46.8421 DA             0 LIG     0.042019
     50 H25        30.1117  108.8783   46.1410 DB             0 LIG     0.082888
     51 H26        28.9592  108.4669   47.3662 DC             0 LIG     0.082888
     52 H27        32.0799  111.1156   49.8072 DD             0 LIG     0.271082
@<TRIPOS>BOND
        1  1  2  2
        2  1  3  1
        3  1  26  1
        4  2  4  1
        5  2  27  1
        6  3  8  2
        7  3  28  1
        8  4  10  2
        9  4  29  1
        10  5  6  1
        11  5  11  2
        12  5  30  1
        13  6  12  2
        14  6  31  1
        15  7  9  2
        16  7  12  1
        17  7  32  1
        18  8  10  1
        19  8  22  1
        20  9  11  1
        21  9  22  1
        22  10  24  1
        23  11  24  1
        24  12  25  1
        25  13  14  1
        26  13  15  1
        27  13  33  1
        28  13  34  1
        29  14  16  1
        30  14  35  1
        31  14  36  1
        32  15  17  1
        33  15  37  1
        34  15  38  1
        35  16  23  1
        36  16  39  1
        37  16  40  1
        38  17  20  1
        39  17  23  1
        40  17  41  1
        41  18  23  1
        42  18  42  1
        43  18  43  1
        44  18  44  1
        45  19  25  1
        46  19  45  1
        47  19  46  1
        48  19  47  1
        49  20  21  1
        50  20  48  1
        51  20  49  1
        52  21  22  1
        53  21  50  1
        54  21  51  1
        55  23  52  1
@<TRIPOS>SUBSTRUCTURE
       1 LIG             1 RESIDUE    0 **** ROOT      0

