@<TRIPOS>MOLECULE
LIG
52 55
SMALL
USER_CHARGES
@<TRIPOS>ATOM
      1 C1         25.4948  106.9584   45.6712 AA             0 LIG     -0.151259
      2 C2         24.3477  107.7595   45.8274 AB             0 LIG     -0.151259
      3 C3         26.7788  107.5396   45.7216 AD             0 LIG     -0.219304
      4 C4         24.4808  109.1461   46.0303 AE             0 LIG     -0.194592
      5 C5         27.2332  112.8019   44.1189 AF             0 LIG     -0.194592
      6 C6         28.2377  112.9185   43.1412 AH             0 LIG     -0.194592
      7 C7         29.2783  110.8715   43.9637 AI             0 LIG     -0.277127
      8 C8         26.9263  108.9378   45.9035 AJ             0 LIG     0.085655
      9 C9         28.2642  110.7306   44.9376 AK             0 LIG     0.085655
     10 C10        25.7594  109.7321   46.0540 AN             0 LIG     0.112307
     11 C11        27.2381  111.7062   45.0048 AO             0 LIG     0.112307
     12 C12        29.2591  111.9566   43.0634 AP             0 LIG     0.162844
     13 C13        31.1131  108.0476   50.7802 AQ             0 LIG     -0.032521
     14 C14        31.5260  109.1631   51.7317 AV             0 LIG     -0.034488
     15 C15        30.2563  108.6241   49.6608 AW             0 LIG     -0.055761
     16 C16        32.2104  110.2850   50.9309 AX             0 LIG     -0.006430
     17 C17        30.8828  109.7511   48.8677 AY             1 LIG     0.133288
     18 C18        31.9852  111.9907   49.1826 AZ             0 LIG     -0.176010
     19 C19        29.8227  113.2024   40.5067 BB             0 LIG     -0.159669
     20 C20        29.8517  110.2172   47.7769 BC             0 LIG     -0.036260
     21 C21        29.2952  109.2174   46.6743 BD             0 LIG     0.036576
     22 N1         28.1697  109.5843   45.7570 BF             0 LIG     -0.187743
     23 N2         31.3340  110.8193   49.8325 BG             2 LIG     -0.192054
     24 S1         25.9058  111.4934   46.1437 BH             0 LIG     -0.197945
     25 S2         30.4720  112.0949   41.7859 BJ             0 LIG     -0.259338
     26 H1         25.3806  105.9038   45.4554 BK             0 LIG     0.162335
     27 H2         23.3649  107.3187   45.7403 BL             0 LIG     0.162335
     28 H3         27.6388  106.9161   45.5313 BM             0 LIG     0.137375
     29 H4         23.6000  109.7647   46.0936 BN             0 LIG     0.176356
     30 H5         26.4262  113.5199   44.1501 BO             0 LIG     0.176356
     31 H6         28.2033  113.7198   42.4152 BP             0 LIG     0.176356
     32 H7         30.0219  110.1016   43.8445 BQ             0 LIG     0.141006
     33 H8         31.9825  107.5524   50.3464 BS             0 LIG     0.046484
     34 H9         30.5457  107.2771   51.3057 BT             0 LIG     0.046484
     35 H10        30.6435  109.5391   52.2567 BU             0 LIG     0.051372
     36 H11        32.1972  108.7559   52.4960 BV             0 LIG     0.051372
     37 H12        30.1282  107.8342   48.9325 BW             0 LIG     0.048966
     38 H13        29.2901  108.9610   50.0560 BX             0 LIG     0.048966
     39 H14        32.4788  111.0821   51.6242 BY             0 LIG     0.095743
     40 H15        33.1383  109.9024   50.4988 BZ             0 LIG     0.095743
     41 H16        31.7728  109.3467   48.3738 CB             0 LIG     0.086415
     42 H17        32.8409  111.6723   48.5814 CI             0 LIG     0.129026
     43 H18        32.3468  112.6932   49.9365 CJ             0 LIG     0.129026
     44 H19        31.2849  112.5321   48.5433 CK             0 LIG     0.129026
     45 H20        30.5019  113.2197   39.6541 CM             0 LIG     0.110256
     46 H21        29.7234  114.2211   40.8817 CN             0 LIG     0.110256
     47 H22        28.8501  112.8504   40.1656 CT             0 LIG     0.110256
     48 H23        29.0350  110.7815   48.2235 CW             0 LIG     0.037623
     49 H24        30.4056  110.9295   47.1694 DA             0 LIG     0.037623
     50 H25        30.1475  108.9639   46.0340 DB             0 LIG     0.084613
     51 H26        29.0496  108.2703   47.1490 DC             0 LIG     0.084613
     52 H27        30.4965  111.1609   50.2907 DD             0 LIG     0.326325
@<TRIPOS>BOND
        1  1  2  2
        2  1  3  1
        3  1  26  1
        4  2  4  1
        5  2  27  1
        6  3  8  2
        7  3  28  1
        8  4  10  2
        9  4  29  1
        10  5  6  1
        11  5  11  2
        12  5  30  1
        13  6  12  2
        14  6  31  1
        15  7  9  2
        16  7  12  1
        17  7  32  1
        18  8  10  1
        19  8  22  1
        20  9  11  1
        21  9  22  1
        22  10  24  1
        23  11  24  1
        24  12  25  1
        25  13  14  1
        26  13  15  1
        27  13  33  1
        28  13  34  1
        29  14  16  1
        30  14  35  1
        31  14  36  1
        32  15  17  1
        33  15  37  1
        34  15  38  1
        35  16  23  1
        36  16  39  1
        37  16  40  1
        38  17  20  1
        39  17  23  1
        40  17  41  1
        41  18  23  1
        42  18  42  1
        43  18  43  1
        44  18  44  1
        45  19  25  1
        46  19  45  1
        47  19  46  1
        48  19  47  1
        49  20  21  1
        50  20  48  1
        51  20  49  1
        52  21  22  1
        53  21  50  1
        54  21  51  1
        55  23  52  1
@<TRIPOS>SUBSTRUCTURE
       1 LIG             1 RESIDUE    0 **** ROOT      0

