TFP1appS
                    3D
 Schrodinger Suite 2019-4.
 50 53  0  0  1  0            999 V2000
   25.5263  106.9527   46.0248 C   0  0  0  0  0  0
   24.3910  107.7469   46.2627 C   0  0  0  0  0  0
   26.7901  107.5609   45.8680 C   0  0  0  0  0  0
   24.5186  109.1468   46.3486 C   0  0  0  0  0  0
   27.1707  112.7512   44.0649 C   0  0  0  0  0  0
   28.1803  112.8642   43.0899 C   0  0  0  0  0  0
   29.3014  110.9059   44.0275 C   0  0  0  0  0  0
   26.9444  108.9595   45.9947 C   0  0  0  0  0  0
   28.2601  110.7419   44.9662 C   0  0  0  0  0  0
   25.7838  109.7493   46.1974 C   0  0  0  0  0  0
   27.2070  111.6930   44.9956 C   0  0  0  0  0  0
   29.2540  111.9471   43.0748 C   0  0  0  0  0  0
   30.9144  112.7173   49.5301 C   0  0  0  0  0  0
   30.5213  111.0240   51.2052 C   0  0  0  0  0  0
   30.4550  113.8136   50.5154 C   0  0  0  0  0  0
   30.0621  112.0996   52.2107 C   0  0  0  0  0  0
   29.4742  110.6001   47.6679 C   0  0  0  0  0  0
   29.2783  109.3924   46.7278 C   0  0  0  0  0  0
   30.4741  110.4332   48.8300 C   0  0  0  0  0  0
   28.1954  109.5754   45.7427 N   0  0  0  0  0  0
   30.2124  111.4715   49.8421 N   0  0  0  0  0  0
   30.7181  113.3894   51.9091 N   0  3  0  0  0  0
   31.5283  112.0646   42.5758 F   0  0  0  0  0  0
   30.1869  113.0807   41.2137 F   0  0  0  0  0  0
   30.2638  110.9179   41.2434 F   0  0  0  0  0  0
   25.8855  111.5116   46.1468 S   0  0  0  0  0  0
   30.3289  112.0127   42.0008 C   0  0  0  0  0  0
   25.4167  105.8844   45.9032 H   0  0  0  0  0  0
   23.4129  107.2887   46.3272 H   0  0  0  0  0  0
   27.6350  106.9488   45.5915 H   0  0  0  0  0  0
   23.6382  109.7620   46.4523 H   0  0  0  0  0  0
   26.3362  113.4389   44.0483 H   0  0  0  0  0  0
   28.1219  113.6371   42.3315 H   0  0  0  0  0  0
   30.1021  110.1868   43.9736 H   0  0  0  0  0  0
   30.6642  113.0350   48.5138 H   0  0  0  0  0  0
   31.9965  112.5646   49.5673 H   0  0  0  0  0  0
   31.5883  110.8066   51.3022 H   0  0  0  0  0  0
   29.9861  110.1010   51.4383 H   0  0  0  0  0  0
   30.9804  114.7482   50.3094 H   0  0  0  0  0  0
   29.3893  114.0138   50.3887 H   0  0  0  0  0  0
   28.9782  112.2174   52.1640 H   0  0  0  0  0  0
   30.3033  111.7902   53.2288 H   0  0  0  0  0  0
   29.8689  111.4161   47.0764 H   0  0  0  0  0  0
   28.4941  110.8921   48.0489 H   0  0  0  0  0  0
   30.1998  109.1817   46.1806 H   0  0  0  0  0  0
   29.0777  108.5035   47.3333 H   0  0  0  0  0  0
   30.4534  109.4277   49.2673 H   0  0  0  0  0  0
   31.4792  110.5760   48.4309 H   0  0  0  0  0  0
   31.7134  113.2739   52.0246 H   0  0  0  0  0  0
   30.3886  114.0969   52.5483 H   0  0  0  0  0  0
  1  2  2  0  0  0
  1  3  1  0  0  0
  1 28  1  0  0  0
  2  4  1  0  0  0
  2 29  1  0  0  0
  3  8  2  0  0  0
  3 30  1  0  0  0
  4 10  2  0  0  0
  4 31  1  0  0  0
  5  6  2  0  0  0
  5 11  1  0  0  0
  5 32  1  0  0  0
  6 12  1  0  0  0
  6 33  1  0  0  0
  7  9  1  0  0  0
  7 12  2  0  0  0
  7 34  1  0  0  0
  8 10  1  0  0  0
  8 20  1  0  0  0
  9 11  2  0  0  0
  9 20  1  0  0  0
 10 26  1  0  0  0
 11 26  1  0  0  0
 12 27  1  0  0  0
 13 15  1  0  0  0
 13 21  1  0  0  0
 13 35  1  0  0  0
 13 36  1  0  0  0
 14 16  1  0  0  0
 14 21  1  0  0  0
 14 37  1  0  0  0
 14 38  1  0  0  0
 15 22  1  0  0  0
 15 39  1  0  0  0
 15 40  1  0  0  0
 16 22  1  0  0  0
 16 41  1  0  0  0
 16 42  1  0  0  0
 17 18  1  0  0  0
 17 19  1  0  0  0
 17 43  1  0  0  0
 17 44  1  0  0  0
 18 20  1  0  0  0
 18 45  1  0  0  0
 18 46  1  0  0  0
 19 21  1  0  0  0
 19 47  1  0  0  0
 19 48  1  0  0  0
 22 49  1  0  0  0
 22 50  1  0  0  0
 23 27  1  0  0  0
 24 27  1  0  0  0
 25 27  1  0  0  0
M  CHG  1  22   1
M  END
> <s_m_entry_id>
635

> <s_m_Source_Path>
/home/emilio/Dropbox/SAMPL9-eglab/mCD/ligsdfs

> <s_m_Source_File>
TFP1appS.sdf

> <i_m_Source_File_Index>
1

> <r_epik_Ionization_Penalty>
  0.0078

> <r_epik_State_Penalty>
  0.0420

> <i_epik_Tot_Q>
1

> <s_m_job_name>
ligprep_4

> <i_f3d_flags>
0

$$$$
