@<TRIPOS>MOLECULE
LIG
50 53
SMALL
USER_CHARGES
@<TRIPOS>ATOM
      1 C1         25.5263  106.9527   46.0248 AA             0 LIG     -0.148793
      2 C2         24.3910  107.7469   46.2627 AB             0 LIG     -0.148793
      3 C3         26.7901  107.5609   45.8680 AD             0 LIG     -0.214109
      4 C4         24.5186  109.1468   46.3486 AE             0 LIG     -0.192215
      5 C5         27.1707  112.7512   44.0649 AF             0 LIG     -0.192215
      6 C6         28.1803  112.8642   43.0899 AH             0 LIG     -0.190417
      7 C7         29.3014  110.9059   44.0275 AI             0 LIG     -0.264320
      8 C8         26.9444  108.9595   45.9947 AJ             0 LIG     0.095370
      9 C9         28.2601  110.7419   44.9662 AK             0 LIG     0.095370
     10 C10        25.7838  109.7493   46.1974 AN             0 LIG     0.116137
     11 C11        27.2070  111.6930   44.9956 AO             0 LIG     0.116137
     12 C12        29.2540  111.9471   43.0748 AP             0 LIG     -0.071581
     13 C13        30.9144  112.7173   49.5301 AQ             0 LIG     0.037365
     14 C14        30.5213  111.0240   51.2052 AV             0 LIG     0.037365
     15 C15        30.4550  113.8136   50.5154 AW             0 LIG     0.086222
     16 C16        30.0621  112.0996   52.2107 AX             0 LIG     0.086222
     17 C17        29.4742  110.6001   47.6679 AY             0 LIG     0.011333
     18 C18        29.2783  109.3924   46.7278 AZ             0 LIG     0.026484
     19 C19        30.4741  110.4332   48.8300 BB             0 LIG     0.037611
     20 N1         28.1954  109.5754   45.7427 BC             0 LIG     -0.178062
     21 N2         30.2124  111.4715   49.8421 BD             0 LIG     -0.528710
     22 N3         30.7181  113.3894   51.9091 BF             0 LIG     -0.527743
     23 F1         31.5283  112.0646   42.5758 BG             0 LIG     -0.255693
     24 F2         30.1869  113.0807   41.2137 BH             0 LIG     -0.255693
     25 F3         30.2638  110.9179   41.2434 BJ             0 LIG     -0.255693
     26 S1         25.8855  111.5116   46.1468 BK             0 LIG     -0.174420
     27 C20        30.3289  112.0127   42.0008 BL             0 LIG     0.695255
     28 H1         25.4167  105.8844   45.9032 BM             0 LIG     0.167075
     29 H2         23.4129  107.2887   46.3272 BN             0 LIG     0.167075
     30 H3         27.6350  106.9488   45.5915 BO             0 LIG     0.157041
     31 H4         23.6382  109.7620   46.4523 BP             0 LIG     0.180382
     32 H5         26.3362  113.4389   44.0483 BQ             0 LIG     0.180382
     33 H6         28.1219  113.6371   42.3315 BS             0 LIG     0.183084
     34 H7         30.1021  110.1868   43.9736 BT             0 LIG     0.171935
     35 H8         30.6642  113.0350   48.5138 BU             0 LIG     0.086347
     36 H9         31.9965  112.5646   49.5673 BV             0 LIG     0.086347
     37 H10        31.5883  110.8066   51.3022 BW             0 LIG     0.086347
     38 H11        29.9861  110.1010   51.4383 BX             0 LIG     0.086347
     39 H12        30.9804  114.7482   50.3094 BY             0 LIG     0.119217
     40 H13        29.3893  114.0138   50.3887 BZ             0 LIG     0.119217
     41 H14        28.9782  112.2174   52.1640 CB             0 LIG     0.119217
     42 H15        30.3033  111.7902   53.2288 CI             0 LIG     0.119217
     43 H16        29.8689  111.4161   47.0764 CJ             0 LIG     0.035265
     44 H17        28.4941  110.8921   48.0489 CK             0 LIG     0.035265
     45 H18        30.1998  109.1817   46.1806 CM             0 LIG     0.085093
     46 H19        29.0777  108.5035   47.3333 CN             0 LIG     0.085093
     47 H20        30.4534  109.4277   49.2673 CT             0 LIG     0.068063
     48 H21        31.4792  110.5760   48.4309 CW             0 LIG     0.068063
     49 H22        31.7134  113.2739   52.0246 DA             0 LIG     0.375757
     50 H23        30.3886  114.0969   52.5483 DB             0 LIG     0.375757
@<TRIPOS>BOND
        1  1  2  2
        2  1  3  1
        3  1  28  1
        4  2  4  1
        5  2  29  1
        6  3  8  2
        7  3  30  1
        8  4  10  2
        9  4  31  1
        10  5  6  1
        11  5  11  2
        12  5  32  1
        13  6  12  2
        14  6  33  1
        15  7  9  2
        16  7  12  1
        17  7  34  1
        18  8  10  1
        19  8  20  1
        20  9  11  1
        21  9  20  1
        22  10  26  1
        23  11  26  1
        24  12  27  1
        25  13  15  1
        26  13  21  1
        27  13  35  1
        28  13  36  1
        29  14  16  1
        30  14  21  1
        31  14  37  1
        32  14  38  1
        33  15  22  1
        34  15  39  1
        35  15  40  1
        36  16  22  1
        37  16  41  1
        38  16  42  1
        39  17  18  1
        40  17  19  1
        41  17  43  1
        42  17  44  1
        43  18  20  1
        44  18  45  1
        45  18  46  1
        46  19  21  1
        47  19  47  1
        48  19  48  1
        49  22  49  1
        50  22  50  1
        51  23  27  1
        52  24  27  1
        53  25  27  1
@<TRIPOS>SUBSTRUCTURE
       1 LIG             1 RESIDUE    0 **** ROOT      0

