@<TRIPOS>MOLECULE
LIG
50 53
SMALL
USER_CHARGES
@<TRIPOS>ATOM
      1 C1         25.4854  106.9640   46.0817 AA             0 LIG     -0.146946
      2 C2         24.3541  107.7740   46.3118 AB             0 LIG     -0.146946
      3 C3         26.7571  107.5513   45.9201 AD             0 LIG     -0.213882
      4 C4         24.5000  109.1737   46.3832 AE             0 LIG     -0.189563
      5 C5         27.1623  112.7477   44.0458 AF             0 LIG     -0.189563
      6 C6         28.1786  112.8683   43.0791 AH             0 LIG     -0.186283
      7 C7         29.2940  110.9010   44.0158 AI             0 LIG     -0.267664
      8 C8         26.9396  108.9553   46.0177 AJ             0 LIG     0.094519
      9 C9         28.2559  110.7344   44.9523 AK             0 LIG     0.094519
     10 C10        25.7764  109.7499   46.2171 AN             0 LIG     0.116195
     11 C11        27.2050  111.6834   44.9805 AO             0 LIG     0.116195
     12 C12        29.2530  111.9549   43.0696 AP             0 LIG     -0.069395
     13 C13        31.1837  110.9024   51.1747 AQ             0 LIG     -0.041121
     14 C14        28.9765  111.6335   50.4266 AV             0 LIG     -0.041121
     15 C15        31.2635  112.1690   52.0556 AW             0 LIG     0.063286
     16 C16        29.0952  112.8747   51.3301 AX             0 LIG     0.063286
     17 C17        29.4664  110.3485   47.7886 AY             0 LIG     -0.016690
     18 C18        29.3560  109.3390   46.6339 AZ             0 LIG     0.028631
     19 C19        30.3147  110.0087   49.0262 BB             0 LIG     -0.059139
     20 N1         28.1918  109.5668   45.7522 BC             0 LIG     -0.187888
     21 N2         30.3254  111.1532   49.9914 BD             0 LIG     -0.035261
     22 N3         29.9279  112.5757   52.4900 BF             0 LIG     -0.795699
     23 F1         30.4273  110.8923   41.3596 BG             0 LIG     -0.251326
     24 F2         31.5087  112.2587   42.6490 BH             0 LIG     -0.251326
     25 F3         30.1467  113.0328   41.1459 BJ             0 LIG     -0.251326
     26 S1         25.8901  111.5124   46.1425 BK             0 LIG     -0.162784
     27 C20        30.3530  112.0468   42.0232 BL             0 LIG     0.697269
     28 H1         25.3514  105.8967   45.9782 BM             0 LIG     0.171877
     29 H2         23.3702  107.3267   46.3895 BN             0 LIG     0.171877
     30 H3         27.5779  106.9125   45.6412 BO             0 LIG     0.150837
     31 H4         23.6255  109.8086   46.4874 BP             0 LIG     0.186066
     32 H5         26.3215  113.4312   44.0243 BQ             0 LIG     0.186066
     33 H6         28.1313  113.6612   42.3399 BS             0 LIG     0.189607
     34 H7         30.1036  110.1934   43.9488 BT             0 LIG     0.149674
     35 H8         32.1906  110.6270   50.8518 BU             0 LIG     0.093433
     36 H9         30.7904  110.0639   51.7522 BV             0 LIG     0.093433
     37 H10        28.4274  110.8407   50.9358 BW             0 LIG     0.093433
     38 H11        28.3601  111.9546   49.5855 BX             0 LIG     0.093433
     39 H12        31.8773  111.9727   52.9402 BY             0 LIG     0.105981
     40 H13        31.7404  112.9949   51.5180 BZ             0 LIG     0.105981
     41 H14        29.5147  113.7211   50.7779 CB             0 LIG     0.105981
     42 H15        28.1017  113.1883   51.6670 CI             0 LIG     0.105981
     43 H16        29.7795  111.3136   47.3852 CJ             0 LIG     0.044237
     44 H17        28.4524  110.4272   48.1614 CK             0 LIG     0.044237
     45 H18        30.2633  109.3471   46.0288 CM             0 LIG     0.093748
     46 H19        29.3002  108.3459   47.0671 CN             0 LIG     0.093748
     47 H20        29.8767  109.1318   49.4974 CT             0 LIG     0.094892
     48 H21        31.3354  109.7164   48.7537 CW             0 LIG     0.094892
     49 H22        29.4922  111.9339   53.1468 DA             0 LIG     0.419755
     50 H23        30.7454  111.9439   49.5251 DB             0 LIG     0.340852
@<TRIPOS>BOND
        1  1  2  2
        2  1  3  1
        3  1  28  1
        4  2  4  1
        5  2  29  1
        6  3  8  2
        7  3  30  1
        8  4  10  2
        9  4  31  1
        10  5  6  1
        11  5  11  2
        12  5  32  1
        13  6  12  2
        14  6  33  1
        15  7  9  2
        16  7  12  1
        17  7  34  1
        18  8  10  1
        19  8  20  1
        20  9  11  1
        21  9  20  1
        22  10  26  1
        23  11  26  1
        24  12  27  1
        25  13  15  1
        26  13  21  1
        27  13  35  1
        28  13  36  1
        29  14  16  1
        30  14  21  1
        31  14  37  1
        32  14  38  1
        33  15  22  1
        34  15  39  1
        35  15  40  1
        36  16  22  1
        37  16  41  1
        38  16  42  1
        39  17  18  1
        40  17  19  1
        41  17  43  1
        42  17  44  1
        43  18  20  1
        44  18  45  1
        45  18  46  1
        46  19  21  1
        47  19  47  1
        48  19  48  1
        49  21  50  1
        50  22  49  1
        51  23  27  1
        52  24  27  1
        53  25  27  1
@<TRIPOS>SUBSTRUCTURE
       1 LIG             1 RESIDUE    0 **** ROOT      0

