@<TRIPOS>MOLECULE
LIG
189 196
SMALL
USER_CHARGES
@<TRIPOS>ATOM
      1 C1         16.5784  117.9591   44.5840 aa             2 LIG     0.430935
      2 C2         15.9856  116.5688   44.2494 ab             1 LIG     0.207656
      3 C3         17.1276  115.4982   44.0337 ad             2 LIG     0.188798
      4 C4         18.2645  115.9897   43.1039 ae             1 LIG     0.195488
      5 C5         18.6740  117.4726   43.4009 af             1 LIG     0.195488
      6 C6         19.7088  118.0811   42.4510 ah             0 LIG     0.166225
      7 C7         17.8393  119.7905   49.6634 ai             2 LIG     0.430935
      8 C8         16.3295  119.5875   49.2321 aj             1 LIG     0.207656
      9 C9         16.0313  118.6807   48.0017 ak             2 LIG     0.188798
     10 C10        17.0442  119.0752   46.8543 an             1 LIG     0.195488
     11 C11        18.5439  119.2999   47.3948 ao             1 LIG     0.195488
     12 C12        19.4922  119.8820   46.2795 ap             0 LIG     0.166225
     13 C13        21.2902  117.1648   52.9596 aq             2 LIG     0.430935
     14 C14        19.8623  117.4631   53.5363 av             1 LIG     0.207656
     15 C15        18.9042  117.6131   52.3636 aw             2 LIG     0.188798
     16 C16        19.2649  118.6305   51.2155 ax             1 LIG     0.195488
     17 C17        20.7540  118.2985   50.7951 ay             1 LIG     0.195488
     18 C18        21.4328  119.4487   50.0531 az             0 LIG     0.166225
     19 C19        22.2193  111.8360   52.9057 bb             2 LIG     0.430935
     20 C20        20.7516  112.2531   53.2073 bc             1 LIG     0.207656
     21 C21        20.5581  113.6284   52.5845 bd             2 LIG     0.188798
     22 C22        21.5159  114.6715   53.1123 bf             1 LIG     0.195488
     23 C23        23.0223  114.2048   52.9555 bg             1 LIG     0.195488
     24 C24        24.0548  115.2200   53.7262 bh             0 LIG     0.166225
     25 C25        24.5718  109.4630   48.7616 bj             2 LIG     0.430935
     26 C26        24.0048  108.6062   49.8425 bk             1 LIG     0.207656
     27 C27        23.0739  109.4815   50.8240 bl             2 LIG     0.188798
     28 C28        23.7089  110.8298   51.2280 bm             1 LIG     0.195488
     29 C29        24.6674  111.5094   50.1387 bn             1 LIG     0.195488
     30 C30        25.6668  112.5136   50.7986 bo             0 LIG     0.166225
     31 C31        22.3268  110.1778   43.9487 bp             2 LIG     0.430935
     32 C32        21.7743  109.0305   44.7420 bq             1 LIG     0.207656
     33 C33        22.0533  109.2847   46.3422 bs             2 LIG     0.188798
     34 C34        23.5536  109.6535   46.5817 bt             1 LIG     0.195488
     35 C35        24.0509  110.7715   45.6693 bu             1 LIG     0.195488
     36 C36        25.5844  110.9013   45.7018 bv             0 LIG     0.166225
     37 C37        20.0628  114.6727   42.1315 bw             1 LIG     0.430935
     38 C38        19.5579  113.2941   41.6934 bx             1 LIG     0.207656
     39 C39        19.8139  112.2639   42.8088 by             2 LIG     0.188798
     40 C40        21.3434  112.3573   43.1806 bz             1 LIG     0.195488
     41 C41        21.8278  113.8188   43.5111 cb             1 LIG     0.195488
     42 C42        23.3820  113.9122   43.7488 ci             0 LIG     0.166225
     43 O1         14.9976  116.2052   45.2476 cj             0 LIG     -0.735959
     44 O2         16.6205  114.3567   43.4146 ck             0 LIG     -0.511627
     45 C43        16.2696  113.3515   44.5046 cm             0 LIG     0.074802
     46 O3         19.3923  115.1598   43.2669 cn             0 LIG     -0.542414
     47 O4         17.5527  118.3556   43.5847 ct             0 LIG     -0.542414
     48 O5         19.1321  118.1209   41.0797 cw             0 LIG     -0.511627
     49 C44        19.8699  118.9214   40.1112 da             0 LIG     0.074802
     50 O6         15.5002  119.1843   50.3956 db             0 LIG     -0.735959
     51 O7         14.6621  118.9165   47.5267 dc             0 LIG     -0.511627
     52 C45        13.8395  117.7907   47.8204 dd             0 LIG     0.074802
     53 O8         17.2124  117.9368   45.9265 de             0 LIG     -0.542414
     54 O9         18.6011  120.1495   48.5385 df             0 LIG     -0.542414
     55 O10        18.9801  121.2536   45.8830 dg             0 LIG     -0.511627
     56 C46        19.8207  121.9262   44.9421 dh             0 LIG     0.074802
     57 O11        19.2929  116.4294   54.4051 di             0 LIG     -0.735959
     58 O12        17.4801  117.8047   52.7107 dj             0 LIG     -0.511627
     59 C47        17.1280  118.9708   53.4130 dk             0 LIG     0.074802
     60 O13        18.3397  118.5239   50.1293 dl             0 LIG     -0.542414
     61 O14        21.6258  118.1264   51.9450 dm             0 LIG     -0.542414
     62 O15        21.1619  120.7955   50.6608 dn             0 LIG     -0.511627
     63 C48        21.5309  121.8002   49.7589 do             0 LIG     0.074802
     64 O16        19.9241  111.1880   52.8099 dp             0 LIG     -0.735959
     65 O17        19.2032  114.1991   52.9056 dq             0 LIG     -0.511627
     66 C49        18.2277  113.9028   51.8830 dr             0 LIG     0.074802
     67 O18        21.3291  115.8962   52.3319 ds             0 LIG     -0.542414
     68 O19        23.1374  112.8219   53.4378 dt             0 LIG     -0.542414
     69 O20        25.3492  114.9542   53.1832 dv             0 LIG     -0.511627
     70 C50        26.3663  115.4735   54.1023 dw             0 LIG     0.074802
     71 O21        23.1962  107.4818   49.2808 dx             0 LIG     -0.735959
     72 O22        22.7749  108.7033   52.0786 dz             0 LIG     -0.511627
     73 C51        23.6148  107.7004   52.5845 ea             0 LIG     0.074802
     74 O23        22.5719  111.7741   51.4925 eb             0 LIG     -0.542414
     75 O24        25.3515  110.5191   49.3197 ec             0 LIG     -0.542414
     76 O25        26.7523  111.7311   51.3335 ed             0 LIG     -0.511627
     77 C52        27.7740  112.5862   51.8576 ee             0 LIG     0.074802
     78 O26        20.3355  108.7695   44.5148 ef             0 LIG     -0.735959
     79 O27        21.9323  108.0413   47.0872 eg             0 LIG     -0.511627
     80 C53        20.7275  107.7868   47.7541 eh             0 LIG     0.074802
     81 O28        23.5932  110.1328   47.9308 ei             0 LIG     -0.542414
     82 O29        23.7391  110.4126   44.3106 ej             0 LIG     -0.542414
     83 O30        25.8945  112.0307   44.9364 ek             0 LIG     -0.511627
     84 C54        27.2719  112.1542   44.4885 el             0 LIG     0.074802
     85 O31        18.1519  113.4181   41.3055 em             0 LIG     -0.735959
     86 O32        19.5292  110.9354   42.3043 en             0 LIG     -0.511627
     87 C55        18.1179  110.4854   42.4275 eo             0 LIG     0.074802
     88 O33        21.6334  111.4589   44.3011 eq             0 LIG     -0.542414
     89 O34        21.4961  114.6078   42.3833 es             0 LIG     -0.542414
     90 O35        23.8352  115.2811   43.7764 et             0 LIG     -0.511627
     91 C56        25.3119  115.4358   43.7795 ev             0 LIG     0.074802
     92 H1         19.4842  119.1474   45.5514 ew             0 LIG     0.056965
     93 H2         20.5330  119.8976   46.6464 ex             0 LIG     0.056965
     94 H3         15.5682  116.0037   46.0813 ey             0 LIG     0.497876
     95 H4         15.6566  113.8011   45.3131 ez             0 LIG     0.066990
     96 H5         17.1677  113.1148   45.0885 fa             0 LIG     0.066990
     97 H6         15.7578  112.4349   44.1505 fb             0 LIG     0.066990
     98 H7         19.6045  119.9697   40.3432 fc             0 LIG     0.066990
     99 H8         19.5761  118.7641   39.0792 fd             0 LIG     0.066990
    100 H9         20.9668  118.6899   40.1931 ff             0 LIG     0.066990
    101 H10        15.5618  118.1935   50.5083 fg             0 LIG     0.497876
    102 H11        12.8262  118.0403   47.3725 fh             0 LIG     0.066990
    103 H12        13.8353  117.6667   48.9067 fi             0 LIG     0.066990
    104 H13        14.1830  116.9096   47.3579 fj             0 LIG     0.066990
    105 H14        19.7319  121.3343   44.0017 fk             0 LIG     0.066990
    106 H15        20.8816  122.0443   45.2360 fl             0 LIG     0.066990
    107 H16        19.6034  123.0134   44.7601 fm             0 LIG     0.066990
    108 H17        19.1873  115.6315   53.8642 fn             0 LIG     0.497876
    109 H18        17.6210  119.8318   53.0457 fo             0 LIG     0.066990
    110 H19        17.2997  118.8379   54.5139 fp             0 LIG     0.066990
    111 H20        16.0517  119.1893   53.2755 fq             0 LIG     0.066990
    112 H21        21.1691  121.6838   48.7197 fs             0 LIG     0.066990
    113 H22        22.6215  121.7318   49.7496 ft             0 LIG     0.066990
    114 H23        21.3093  122.8868   50.0166 fu             0 LIG     0.066990
    115 H24        19.9589  111.0950   51.8328 fv             0 LIG     0.497876
    116 H25        18.2513  112.8430   51.7643 fw             0 LIG     0.066990
    117 H26        18.4768  114.4008   50.9975 fx             0 LIG     0.066990
    118 H27        17.3081  114.2832   52.2048 fy             0 LIG     0.066990
    119 H28        27.2552  115.8440   53.5553 fz             0 LIG     0.066990
    120 H29        26.5532  114.6993   54.8426 gb             0 LIG     0.066990
    121 H30        25.9625  116.2937   54.6667 gc             0 LIG     0.066990
    122 H31        22.8026  107.7935   48.4569 gf             0 LIG     0.497876
    123 H32        24.6346  108.0618   52.9680 gg             0 LIG     0.066990
    124 H33        23.8046  106.9630   51.8049 gh             0 LIG     0.066990
    125 H34        23.1603  107.1781   53.4187 gi             0 LIG     0.066990
    126 H35        28.3482  113.0481   51.0581 gj             0 LIG     0.066990
    127 H36        28.5378  111.9655   52.3622 gk             0 LIG     0.066990
    128 H37        27.3701  113.2714   52.5974 gl             0 LIG     0.066990
    129 H38        20.3780  107.7074   44.5110 gm             0 LIG     0.497876
    130 H39        19.8968  108.3771   47.3417 gn             0 LIG     0.066990
    131 H40        20.8939  107.8529   48.7968 go             0 LIG     0.066990
    132 H41        20.4120  106.7044   47.6489 gp             0 LIG     0.066990
    133 H42        28.0503  112.3340   45.2732 gq             0 LIG     0.066990
    134 H43        27.3234  112.9425   43.8409 gr             0 LIG     0.066990
    135 H44        27.6070  111.2003   44.0449 gs             0 LIG     0.066990
    136 H45        17.7607  113.8595   42.0945 gt             0 LIG     0.497876
    137 H46        17.6408  110.9170   41.5111 gu             0 LIG     0.066990
    138 H47        17.6507  110.9055   43.3319 gv             0 LIG     0.066990
    139 H48        18.1397  109.3657   42.4140 gw             0 LIG     0.066990
    140 H49        25.5968  116.4834   43.9984 gx             0 LIG     0.066990
    141 H50        25.7313  115.2598   42.7945 gy             0 LIG     0.066990
    142 H51        25.7390  114.8253   44.5723 gz             0 LIG     0.066990
    143 H52        15.7050  118.6203   44.6190 hb             0 LIG     0.060700
    144 H53        15.4643  116.7735   43.3061 hd             0 LIG     0.055736
    145 H54        17.5496  115.2203   45.0074 hh             0 LIG     0.078119
    146 H55        17.9124  116.1192   42.0731 hi             0 LIG     0.050773
    147 H56        19.2417  117.4772   44.3396 hj             0 LIG     0.050773
    148 H57        19.9206  119.0898   42.8266 hk             0 LIG     0.056965
    149 H58        20.7472  117.7355   42.5270 hl             0 LIG     0.056965
    150 H59        17.8231  120.5444   50.4588 hm             0 LIG     0.060700
    151 H60        15.9884  120.5912   48.9500 hq             0 LIG     0.055736
    152 H61        16.1968  117.6331   48.2821 hr             0 LIG     0.078119
    153 H62        16.7469  120.0126   46.3682 ht             0 LIG     0.050773
    154 H63        18.9884  118.3174   47.5964 hu             0 LIG     0.050773
    155 H64        22.0314  117.1605   53.7670 hv             0 LIG     0.060700
    156 H65        19.9277  118.4576   53.9948 hy             0 LIG     0.055736
    157 H66        18.8755  116.5958   51.9542 hz             0 LIG     0.078119
    158 H67        19.2983  119.6204   51.5960 ia             0 LIG     0.050773
    159 H68        20.6941  117.3724   50.1443 ib             0 LIG     0.050773
    160 H69        21.1396  119.3103   48.9585 ic             0 LIG     0.056965
    161 H70        22.5014  119.2784   50.1266 id             0 LIG     0.056965
    162 H71        22.4800  110.9391   53.4185 ie             0 LIG     0.060700
    163 H72        20.6499  112.3184   54.2731 if             0 LIG     0.055736
    164 H73        20.7082  113.5235   51.5107 ig             0 LIG     0.078119
    165 H74        21.3588  114.7707   54.1651 ih             0 LIG     0.050773
    166 H75        23.3493  114.2084   51.9372 ii             0 LIG     0.050773
    167 H76        23.7488  116.2310   53.4230 ij             0 LIG     0.056965
    168 H77        24.0908  114.9578   54.7619 ik             0 LIG     0.056965
    169 H78        25.2892  108.7585   48.1789 il             0 LIG     0.060700
    170 H79        24.8872  108.3140   50.4891 im             0 LIG     0.055736
    171 H80        22.2298  109.6993   50.1446 io             0 LIG     0.078119
    172 H81        24.3157  110.6768   52.1868 ip             0 LIG     0.050773
    173 H82        24.0888  112.0828   49.4296 iq             0 LIG     0.050773
    174 H83        26.0718  113.2333   50.0932 is             0 LIG     0.056965
    175 H84        25.2531  113.1519   51.5873 it             0 LIG     0.056965
    176 H85        22.1823  109.9292   42.8852 iu             0 LIG     0.060700
    177 H86        22.2967  108.2058   44.3990 iv             0 LIG     0.055736
    178 H87        21.4384  110.0561   46.6789 iw             0 LIG     0.078119
    179 H88        24.1034  108.7069   46.4876 ix             0 LIG     0.050773
    180 H89        23.5602  111.6914   45.9286 iy             0 LIG     0.050773
    181 H90        25.8784  111.1020   46.7821 iz             0 LIG     0.056965
    182 H91        26.1256  109.9631   45.4412 ja             0 LIG     0.056965
    183 H92        19.8971  115.3550   41.2831 jb             0 LIG     0.060700
    184 H93        20.1705  112.9508   40.8157 jc             0 LIG     0.055736
    185 H94        19.2751  112.4976   43.6597 jd             0 LIG     0.078119
    186 H95        21.9984  111.9470   42.3740 je             0 LIG     0.050773
    187 H96        21.2130  114.1865   44.3564 jf             0 LIG     0.050773
    188 H97        23.8547  113.4454   42.9010 jg             0 LIG     0.056965
    189 H98        23.7094  113.3220   44.5879 jh             0 LIG     0.056965
@<TRIPOS>BOND
        1  1  2  1
        2  1  47  1
        3  1  53  1
        4  1  143  1
        5  2  3  1
        6  2  43  1
        7  2  144  1
        8  3  4  1
        9  3  44  1
        10  3  145  1
        11  4  5  1
        12  4  46  1
        13  4  146  1
        14  5  6  1
        15  5  47  1
        16  5  147  1
        17  6  48  1
        18  6  148  1
        19  6  149  1
        20  7  8  1
        21  7  54  1
        22  7  60  1
        23  7  150  1
        24  8  9  1
        25  8  50  1
        26  8  151  1
        27  9  10  1
        28  9  51  1
        29  9  152  1
        30  10  11  1
        31  10  53  1
        32  10  153  1
        33  11  12  1
        34  11  54  1
        35  11  154  1
        36  12  55  1
        37  12  92  1
        38  12  93  1
        39  13  14  1
        40  13  61  1
        41  13  67  1
        42  13  155  1
        43  14  15  1
        44  14  57  1
        45  14  156  1
        46  15  16  1
        47  15  58  1
        48  15  157  1
        49  16  17  1
        50  16  60  1
        51  16  158  1
        52  17  18  1
        53  17  61  1
        54  17  159  1
        55  18  62  1
        56  18  160  1
        57  18  161  1
        58  19  20  1
        59  19  68  1
        60  19  74  1
        61  19  162  1
        62  20  21  1
        63  20  64  1
        64  20  163  1
        65  21  22  1
        66  21  65  1
        67  21  164  1
        68  22  23  1
        69  22  67  1
        70  22  165  1
        71  23  24  1
        72  23  68  1
        73  23  166  1
        74  24  69  1
        75  24  167  1
        76  24  168  1
        77  25  26  1
        78  25  75  1
        79  25  81  1
        80  25  169  1
        81  26  27  1
        82  26  71  1
        83  26  170  1
        84  27  28  1
        85  27  72  1
        86  27  171  1
        87  28  29  1
        88  28  74  1
        89  28  172  1
        90  29  30  1
        91  29  75  1
        92  29  173  1
        93  30  76  1
        94  30  174  1
        95  30  175  1
        96  31  32  1
        97  31  82  1
        98  31  88  1
        99  31  176  1
        100  32  33  1
        101  32  78  1
        102  32  177  1
        103  33  34  1
        104  33  79  1
        105  33  178  1
        106  34  35  1
        107  34  81  1
        108  34  179  1
        109  35  36  1
        110  35  82  1
        111  35  180  1
        112  36  83  1
        113  36  181  1
        114  36  182  1
        115  37  38  1
        116  37  46  1
        117  37  89  1
        118  37  183  1
        119  38  39  1
        120  38  85  1
        121  38  184  1
        122  39  40  1
        123  39  86  1
        124  39  185  1
        125  40  41  1
        126  40  88  1
        127  40  186  1
        128  41  42  1
        129  41  89  1
        130  41  187  1
        131  42  90  1
        132  42  188  1
        133  42  189  1
        134  43  94  1
        135  44  45  1
        136  45  95  1
        137  45  96  1
        138  45  97  1
        139  48  49  1
        140  49  98  1
        141  49  99  1
        142  49  100  1
        143  50  101  1
        144  51  52  1
        145  52  102  1
        146  52  103  1
        147  52  104  1
        148  55  56  1
        149  56  105  1
        150  56  106  1
        151  56  107  1
        152  57  108  1
        153  58  59  1
        154  59  109  1
        155  59  110  1
        156  59  111  1
        157  62  63  1
        158  63  112  1
        159  63  113  1
        160  63  114  1
        161  64  115  1
        162  65  66  1
        163  66  116  1
        164  66  117  1
        165  66  118  1
        166  69  70  1
        167  70  119  1
        168  70  120  1
        169  70  121  1
        170  71  122  1
        171  72  73  1
        172  73  123  1
        173  73  124  1
        174  73  125  1
        175  76  77  1
        176  77  126  1
        177  77  127  1
        178  77  128  1
        179  78  129  1
        180  79  80  1
        181  80  130  1
        182  80  131  1
        183  80  132  1
        184  83  84  1
        185  84  133  1
        186  84  134  1
        187  84  135  1
        188  85  136  1
        189  86  87  1
        190  87  137  1
        191  87  138  1
        192  87  139  1
        193  90  91  1
        194  91  140  1
        195  91  141  1
        196  91  142  1
@<TRIPOS>SUBSTRUCTURE
       1 LIG             1 RESIDUE    0 **** ROOT      0

