bCDH26DM
                    3D

189196  0  0  1  0            999 V2000
   16.5784  117.9591   44.5840  C    0  0  2  0  0  0
   15.9856  116.5688   44.2494  C    0  0  1  0  0  0
   17.1276  115.4982   44.0337  C    0  0  2  0  0  0
   18.2645  115.9897   43.1039  C    0  0  1  0  0  0
   18.6740  117.4726   43.4009  C    0  0  1  0  0  0
   19.7088  118.0811   42.4510  C    0  0  0  0  0  0
   17.8393  119.7905   49.6634  C    0  0  2  0  0  0
   16.3295  119.5875   49.2321  C    0  0  1  0  0  0
   16.0313  118.6807   48.0017  C    0  0  2  0  0  0
   17.0442  119.0752   46.8543  C    0  0  1  0  0  0
   18.5439  119.2999   47.3948  C    0  0  1  0  0  0
   19.4922  119.8820   46.2795  C    0  0  0  0  0  0
   21.2902  117.1648   52.9596  C    0  0  2  0  0  0
   19.8623  117.4631   53.5363  C    0  0  1  0  0  0
   18.9042  117.6131   52.3636  C    0  0  2  0  0  0
   19.2649  118.6305   51.2155  C    0  0  1  0  0  0
   20.7540  118.2985   50.7951  C    0  0  1  0  0  0
   21.4328  119.4487   50.0531  C    0  0  0  0  0  0
   22.2193  111.8360   52.9057  C    0  0  2  0  0  0
   20.7516  112.2531   53.2073  C    0  0  1  0  0  0
   20.5581  113.6284   52.5845  C    0  0  2  0  0  0
   21.5159  114.6715   53.1123  C    0  0  1  0  0  0
   23.0223  114.2048   52.9555  C    0  0  1  0  0  0
   24.0548  115.2200   53.7262  C    0  0  0  0  0  0
   24.5718  109.4630   48.7616  C    0  0  2  0  0  0
   24.0048  108.6062   49.8425  C    0  0  1  0  0  0
   23.0739  109.4815   50.8240  C    0  0  2  0  0  0
   23.7089  110.8298   51.2280  C    0  0  1  0  0  0
   24.6674  111.5094   50.1387  C    0  0  1  0  0  0
   25.6668  112.5136   50.7986  C    0  0  0  0  0  0
   22.3268  110.1778   43.9487  C    0  0  2  0  0  0
   21.7743  109.0305   44.7420  C    0  0  1  0  0  0
   22.0533  109.2847   46.3422  C    0  0  2  0  0  0
   23.5536  109.6535   46.5817  C    0  0  1  0  0  0
   24.0509  110.7715   45.6693  C    0  0  1  0  0  0
   25.5844  110.9013   45.7018  C    0  0  0  0  0  0
   20.0628  114.6727   42.1315  C    0  0  1  0  0  0
   19.5579  113.2941   41.6934  C    0  0  1  0  0  0
   19.8139  112.2639   42.8088  C    0  0  2  0  0  0
   21.3434  112.3573   43.1806  C    0  0  1  0  0  0
   21.8278  113.8188   43.5111  C    0  0  1  0  0  0
   23.3820  113.9122   43.7488  C    0  0  0  0  0  0
   14.9976  116.2052   45.2476  O    0  0  0  0  0  0
   16.6205  114.3567   43.4146  O    0  0  0  0  0  0
   16.2696  113.3515   44.5046  C    0  0  0  0  0  0
   19.3923  115.1598   43.2669  O    0  0  0  0  0  0
   17.5527  118.3556   43.5847  O    0  0  0  0  0  0
   19.1321  118.1209   41.0797  O    0  0  0  0  0  0
   19.8699  118.9214   40.1112  C    0  0  0  0  0  0
   15.5002  119.1843   50.3956  O    0  0  0  0  0  0
   14.6621  118.9165   47.5267  O    0  0  0  0  0  0
   13.8395  117.7907   47.8204  C    0  0  0  0  0  0
   17.2124  117.9368   45.9265  O    0  0  0  0  0  0
   18.6011  120.1495   48.5385  O    0  0  0  0  0  0
   18.9801  121.2536   45.8830  O    0  0  0  0  0  0
   19.8207  121.9262   44.9421  C    0  0  0  0  0  0
   19.2929  116.4294   54.4051  O    0  0  0  0  0  0
   17.4801  117.8047   52.7107  O    0  0  0  0  0  0
   17.1280  118.9708   53.4130  C    0  0  0  0  0  0
   18.3397  118.5239   50.1293  O    0  0  0  0  0  0
   21.6258  118.1264   51.9450  O    0  0  0  0  0  0
   21.1619  120.7955   50.6608  O    0  0  0  0  0  0
   21.5309  121.8002   49.7589  C    0  0  0  0  0  0
   19.9241  111.1880   52.8099  O    0  0  0  0  0  0
   19.2032  114.1991   52.9056  O    0  0  0  0  0  0
   18.2277  113.9028   51.8830  C    0  0  0  0  0  0
   21.3291  115.8962   52.3319  O    0  0  0  0  0  0
   23.1374  112.8219   53.4378  O    0  0  0  0  0  0
   25.3492  114.9542   53.1832  O    0  0  0  0  0  0
   26.3663  115.4735   54.1023  C    0  0  0  0  0  0
   23.1962  107.4818   49.2808  O    0  0  0  0  0  0
   22.7749  108.7033   52.0786  O    0  0  0  0  0  0
   23.6148  107.7004   52.5845  C    0  0  0  0  0  0
   22.5719  111.7741   51.4925  O    0  0  0  0  0  0
   25.3515  110.5191   49.3197  O    0  0  0  0  0  0
   26.7523  111.7311   51.3335  O    0  0  0  0  0  0
   27.7740  112.5862   51.8576  C    0  0  0  0  0  0
   20.3355  108.7695   44.5148  O    0  0  0  0  0  0
   21.9323  108.0413   47.0872  O    0  0  0  0  0  0
   20.7275  107.7868   47.7541  C    0  0  0  0  0  0
   23.5932  110.1328   47.9308  O    0  0  0  0  0  0
   23.7391  110.4126   44.3106  O    0  0  0  0  0  0
   25.8945  112.0307   44.9364  O    0  0  0  0  0  0
   27.2719  112.1542   44.4885  C    0  0  0  0  0  0
   18.1519  113.4181   41.3055  O    0  0  0  0  0  0
   19.5292  110.9354   42.3043  O    0  0  0  0  0  0
   18.1179  110.4854   42.4275  C    0  0  0  0  0  0
   21.6334  111.4589   44.3011  O    0  0  0  0  0  0
   21.4961  114.6078   42.3833  O    0  0  0  0  0  0
   23.8352  115.2811   43.7764  O    0  0  0  0  0  0
   25.3119  115.4358   43.7795  C    0  0  0  0  0  0
   19.4842  119.1474   45.5514  H    0  0  0  0  0  0
   20.5330  119.8976   46.6464  H    0  0  0  0  0  0
   15.5682  116.0037   46.0813  H    0  0  0  0  0  0
   15.6566  113.8011   45.3131  H    0  0  0  0  0  0
   17.1677  113.1148   45.0885  H    0  0  0  0  0  0
   15.7578  112.4349   44.1505  H    0  0  0  0  0  0
   19.6045  119.9697   40.3432  H    0  0  0  0  0  0
   19.5761  118.7641   39.0792  H    0  0  0  0  0  0
   20.9668  118.6899   40.1931  H    0  0  0  0  0  0
   15.5618  118.1935   50.5083  H    0  0  0  0  0  0
   12.8262  118.0403   47.3725  H    0  0  0  0  0  0
   13.8353  117.6667   48.9067  H    0  0  0  0  0  0
   14.1830  116.9096   47.3579  H    0  0  0  0  0  0
   19.7319  121.3343   44.0017  H    0  0  0  0  0  0
   20.8816  122.0443   45.2360  H    0  0  0  0  0  0
   19.6034  123.0134   44.7601  H    0  0  0  0  0  0
   19.1873  115.6315   53.8642  H    0  0  0  0  0  0
   17.6210  119.8318   53.0457  H    0  0  0  0  0  0
   17.2997  118.8379   54.5139  H    0  0  0  0  0  0
   16.0517  119.1893   53.2755  H    0  0  0  0  0  0
   21.1691  121.6838   48.7197  H    0  0  0  0  0  0
   22.6215  121.7318   49.7496  H    0  0  0  0  0  0
   21.3093  122.8868   50.0166  H    0  0  0  0  0  0
   19.9589  111.0950   51.8328  H    0  0  0  0  0  0
   18.2513  112.8430   51.7643  H    0  0  0  0  0  0
   18.4768  114.4008   50.9975  H    0  0  0  0  0  0
   17.3081  114.2832   52.2048  H    0  0  0  0  0  0
   27.2552  115.8440   53.5553  H    0  0  0  0  0  0
   26.5532  114.6993   54.8426  H    0  0  0  0  0  0
   25.9625  116.2937   54.6667  H    0  0  0  0  0  0
   22.8026  107.7935   48.4569  H    0  0  0  0  0  0
   24.6346  108.0618   52.9680  H    0  0  0  0  0  0
   23.8046  106.9630   51.8049  H    0  0  0  0  0  0
   23.1603  107.1781   53.4187  H    0  0  0  0  0  0
   28.3482  113.0481   51.0581  H    0  0  0  0  0  0
   28.5378  111.9655   52.3622  H    0  0  0  0  0  0
   27.3701  113.2714   52.5974  H    0  0  0  0  0  0
   20.3780  107.7074   44.5110  H    0  0  0  0  0  0
   19.8968  108.3771   47.3417  H    0  0  0  0  0  0
   20.8939  107.8529   48.7968  H    0  0  0  0  0  0
   20.4120  106.7044   47.6489  H    0  0  0  0  0  0
   28.0503  112.3340   45.2732  H    0  0  0  0  0  0
   27.3234  112.9425   43.8409  H    0  0  0  0  0  0
   27.6070  111.2003   44.0449  H    0  0  0  0  0  0
   17.7607  113.8595   42.0945  H    0  0  0  0  0  0
   17.6408  110.9170   41.5111  H    0  0  0  0  0  0
   17.6507  110.9055   43.3319  H    0  0  0  0  0  0
   18.1397  109.3657   42.4140  H    0  0  0  0  0  0
   25.5968  116.4834   43.9984  H    0  0  0  0  0  0
   25.7313  115.2598   42.7945  H    0  0  0  0  0  0
   25.7390  114.8253   44.5723  H    0  0  0  0  0  0
   15.7050  118.6203   44.6190  H    0  0  0  0  0  0
   15.4643  116.7735   43.3061  H    0  0  0  0  0  0
   17.5496  115.2203   45.0074  H    0  0  0  0  0  0
   17.9124  116.1192   42.0731  H    0  0  0  0  0  0
   19.2417  117.4772   44.3396  H    0  0  0  0  0  0
   19.9206  119.0898   42.8266  H    0  0  0  0  0  0
   20.7472  117.7355   42.5270  H    0  0  0  0  0  0
   17.8231  120.5444   50.4588  H    0  0  0  0  0  0
   15.9884  120.5912   48.9500  H    0  0  0  0  0  0
   16.1968  117.6331   48.2821  H    0  0  0  0  0  0
   16.7469  120.0126   46.3682  H    0  0  0  0  0  0
   18.9884  118.3174   47.5964  H    0  0  0  0  0  0
   22.0314  117.1605   53.7670  H    0  0  0  0  0  0
   19.9277  118.4576   53.9948  H    0  0  0  0  0  0
   18.8755  116.5958   51.9542  H    0  0  0  0  0  0
   19.2983  119.6204   51.5960  H    0  0  0  0  0  0
   20.6941  117.3724   50.1443  H    0  0  0  0  0  0
   21.1396  119.3103   48.9585  H    0  0  0  0  0  0
   22.5014  119.2784   50.1266  H    0  0  0  0  0  0
   22.4800  110.9391   53.4185  H    0  0  0  0  0  0
   20.6499  112.3184   54.2731  H    0  0  0  0  0  0
   20.7082  113.5235   51.5107  H    0  0  0  0  0  0
   21.3588  114.7707   54.1651  H    0  0  0  0  0  0
   23.3493  114.2084   51.9372  H    0  0  0  0  0  0
   23.7488  116.2310   53.4230  H    0  0  0  0  0  0
   24.0908  114.9578   54.7619  H    0  0  0  0  0  0
   25.2892  108.7585   48.1789  H    0  0  0  0  0  0
   24.8872  108.3140   50.4891  H    0  0  0  0  0  0
   22.2298  109.6993   50.1446  H    0  0  0  0  0  0
   24.3157  110.6768   52.1868  H    0  0  0  0  0  0
   24.0888  112.0828   49.4296  H    0  0  0  0  0  0
   26.0718  113.2333   50.0932  H    0  0  0  0  0  0
   25.2531  113.1519   51.5873  H    0  0  0  0  0  0
   22.1823  109.9292   42.8852  H    0  0  0  0  0  0
   22.2967  108.2058   44.3990  H    0  0  0  0  0  0
   21.4384  110.0561   46.6789  H    0  0  0  0  0  0
   24.1034  108.7069   46.4876  H    0  0  0  0  0  0
   23.5602  111.6914   45.9286  H    0  0  0  0  0  0
   25.8784  111.1020   46.7821  H    0  0  0  0  0  0
   26.1256  109.9631   45.4412  H    0  0  0  0  0  0
   19.8971  115.3550   41.2831  H    0  0  0  0  0  0
   20.1705  112.9508   40.8157  H    0  0  0  0  0  0
   19.2751  112.4976   43.6597  H    0  0  0  0  0  0
   21.9984  111.9470   42.3740  H    0  0  0  0  0  0
   21.2130  114.1865   44.3564  H    0  0  0  0  0  0
   23.8547  113.4454   42.9010  H    0  0  0  0  0  0
   23.7094  113.3220   44.5879  H    0  0  0  0  0  0
  1  2  1  0  0  0
  1 47  1  0  0  0
  1 53  1  0  0  0
  1143  1  0  0  0
  2  3  1  0  0  0
  2 43  1  0  0  0
  2144  1  0  0  0
  3  4  1  0  0  0
  3 44  1  0  0  0
  3145  1  0  0  0
  4  5  1  0  0  0
  4 46  1  0  0  0
  4146  1  0  0  0
  5  6  1  0  0  0
  5 47  1  0  0  0
  5147  1  0  0  0
  6 48  1  0  0  0
  6148  1  0  0  0
  6149  1  0  0  0
  7  8  1  0  0  0
  7 54  1  0  0  0
  7 60  1  0  0  0
  7150  1  0  0  0
  8  9  1  0  0  0
  8 50  1  0  0  0
  8151  1  0  0  0
  9 10  1  0  0  0
  9 51  1  0  0  0
  9152  1  0  0  0
 10 11  1  0  0  0
 10 53  1  0  0  0
 10153  1  0  0  0
 11 12  1  0  0  0
 11 54  1  0  0  0
 11154  1  0  0  0
 12 55  1  0  0  0
 12 92  1  0  0  0
 12 93  1  0  0  0
 13 14  1  0  0  0
 13 61  1  0  0  0
 13 67  1  0  0  0
 13155  1  0  0  0
 14 15  1  0  0  0
 14 57  1  0  0  0
 14156  1  0  0  0
 15 16  1  0  0  0
 15 58  1  0  0  0
 15157  1  0  0  0
 16 17  1  0  0  0
 16 60  1  0  0  0
 16158  1  0  0  0
 17 18  1  0  0  0
 17 61  1  0  0  0
 17159  1  0  0  0
 18 62  1  0  0  0
 18160  1  0  0  0
 18161  1  0  0  0
 19 20  1  0  0  0
 19 68  1  0  0  0
 19 74  1  0  0  0
 19162  1  0  0  0
 20 21  1  0  0  0
 20 64  1  0  0  0
 20163  1  0  0  0
 21 22  1  0  0  0
 21 65  1  0  0  0
 21164  1  0  0  0
 22 23  1  0  0  0
 22 67  1  0  0  0
 22165  1  0  0  0
 23 24  1  0  0  0
 23 68  1  0  0  0
 23166  1  0  0  0
 24 69  1  0  0  0
 24167  1  0  0  0
 24168  1  0  0  0
 25 26  1  0  0  0
 25 75  1  0  0  0
 25 81  1  0  0  0
 25169  1  0  0  0
 26 27  1  0  0  0
 26 71  1  0  0  0
 26170  1  0  0  0
 27 28  1  0  0  0
 27 72  1  0  0  0
 27171  1  0  0  0
 28 29  1  0  0  0
 28 74  1  0  0  0
 28172  1  0  0  0
 29 30  1  0  0  0
 29 75  1  0  0  0
 29173  1  0  0  0
 30 76  1  0  0  0
 30174  1  0  0  0
 30175  1  0  0  0
 31 32  1  0  0  0
 31 82  1  0  0  0
 31 88  1  0  0  0
 31176  1  0  0  0
 32 33  1  0  0  0
 32 78  1  0  0  0
 32177  1  0  0  0
 33 34  1  0  0  0
 33 79  1  0  0  0
 33178  1  0  0  0
 34 35  1  0  0  0
 34 81  1  0  0  0
 34179  1  0  0  0
 35 36  1  0  0  0
 35 82  1  0  0  0
 35180  1  0  0  0
 36 83  1  0  0  0
 36181  1  0  0  0
 36182  1  0  0  0
 37 38  1  0  0  0
 37 46  1  0  0  0
 37 89  1  0  0  0
 37183  1  0  0  0
 38 39  1  0  0  0
 38 85  1  0  0  0
 38184  1  0  0  0
 39 40  1  0  0  0
 39 86  1  0  0  0
 39185  1  0  0  0
 40 41  1  0  0  0
 40 88  1  0  0  0
 40186  1  0  0  0
 41 42  1  0  0  0
 41 89  1  0  0  0
 41187  1  0  0  0
 42 90  1  0  0  0
 42188  1  0  0  0
 42189  1  0  0  0
 43 94  1  0  0  0
 44 45  1  0  0  0
 45 95  1  0  0  0
 45 96  1  0  0  0
 45 97  1  0  0  0
 48 49  1  0  0  0
 49 98  1  0  0  0
 49 99  1  0  0  0
 49100  1  0  0  0
 50101  1  0  0  0
 51 52  1  0  0  0
 52102  1  0  0  0
 52103  1  0  0  0
 52104  1  0  0  0
 55 56  1  0  0  0
 56105  1  0  0  0
 56106  1  0  0  0
 56107  1  0  0  0
 57108  1  0  0  0
 58 59  1  0  0  0
 59109  1  0  0  0
 59110  1  0  0  0
 59111  1  0  0  0
 62 63  1  0  0  0
 63112  1  0  0  0
 63113  1  0  0  0
 63114  1  0  0  0
 64115  1  0  0  0
 65 66  1  0  0  0
 66116  1  0  0  0
 66117  1  0  0  0
 66118  1  0  0  0
 69 70  1  0  0  0
 70119  1  0  0  0
 70120  1  0  0  0
 70121  1  0  0  0
 71122  1  0  0  0
 72 73  1  0  0  0
 73123  1  0  0  0
 73124  1  0  0  0
 73125  1  0  0  0
 76 77  1  0  0  0
 77126  1  0  0  0
 77127  1  0  0  0
 77128  1  0  0  0
 78129  1  0  0  0
 79 80  1  0  0  0
 80130  1  0  0  0
 80131  1  0  0  0
 80132  1  0  0  0
 83 84  1  0  0  0
 84133  1  0  0  0
 84134  1  0  0  0
 84135  1  0  0  0
 85136  1  0  0  0
 86 87  1  0  0  0
 87137  1  0  0  0
 87138  1  0  0  0
 87139  1  0  0  0
 90 91  1  0  0  0
 91140  1  0  0  0
 91141  1  0  0  0
 91142  1  0  0  0
M  END
> <s_m_entry_id>
14

> <s_m_Source_Path>
/home/emilio/Dropbox/sims/SAMPL9/work/receptor

> <s_m_Source_File>
bCDH26DM.mol2

> <i_m_Source_File_Index>
1

$$$$

