PMT1aspR
                    3D
 Structure written by MMmdl.
 41 43  0  0  1  0            999 V2000
   23.7964  106.3793   48.0558 C   0  0  0  0  0  0
   29.3076  110.1790   47.2829 C   0  0  0  0  0  0
   23.1709  107.2192   48.9688 C   0  0  0  0  0  0
   28.9146  111.1817   48.1584 C   0  0  0  0  0  0
   24.7405  106.8934   47.1700 C   0  0  0  0  0  0
   28.3488  109.3782   46.6661 C   0  0  0  0  0  0
   23.5092  108.5667   49.0063 C   0  0  0  0  0  0
   27.5651  111.3658   48.4334 C   0  0  0  0  0  0
   25.0919  108.2601   47.1643 C   0  0  0  0  0  0
   26.9685  109.5525   46.9007 C   0  0  0  0  0  0
   24.4650  109.0826   48.1275 C   0  0  0  0  0  0
   26.6022  110.5566   47.8266 C   0  0  0  0  0  0
   25.8032  106.7294   43.8436 C   0  0  0  0  0  0
   23.7667  109.8548   42.7718 C   0  0  0  0  0  0
   24.1212  107.7009   41.6419 C   0  0  0  0  0  0
   25.7400  109.1255   44.8149 C   0  0  0  0  0  0
   24.9788  108.0334   43.9890 C   0  0  1  0  0  0
   25.9803  108.8102   46.2058 N   0  0  0  0  0  0
   24.5130  108.5954   42.7097 N   0  3  0  0  0  0
   24.9308  110.7618   48.3134 S   0  0  0  0  0  0
   23.5439  105.3286   48.0283 H   0  0  0  0  0  0
   30.3552  110.0220   47.0753 H   0  0  0  0  0  0
   22.4364  106.8247   49.6554 H   0  0  0  0  0  0
   29.6559  111.8065   48.6371 H   0  0  0  0  0  0
   25.1789  106.1931   46.4768 H   0  0  0  0  0  0
   28.7196  108.6216   45.9968 H   0  0  0  0  0  0
   23.0407  109.2088   49.7375 H   0  0  0  0  0  0
   27.2686  112.1280   49.1393 H   0  0  0  0  0  0
   26.1479  106.3386   44.8064 H   0  0  0  0  0  0
   26.6930  106.8046   43.2145 H   0  0  0  0  0  0
   25.1833  105.9512   43.4242 H   0  0  0  0  0  0
   22.8278  109.6430   43.2246 H   0  0  0  0  0  0
   23.6215  110.2963   41.8077 H   0  0  0  0  0  0
   24.2255  110.6847   43.2808 H   0  0  0  0  0  0
   23.2354  107.2377   42.0089 H   0  0  0  0  0  0
   24.8627  106.9709   41.3792 H   0  0  0  0  0  0
   23.9012  108.2443   40.7462 H   0  0  0  0  0  0
   26.7988  109.1466   44.5915 H   0  0  0  0  0  0
   25.6243  110.1394   44.4802 H   0  0  0  0  0  0
   24.0605  107.8170   44.5036 H   0  0  0  0  0  0
   25.4069  108.9130   42.3924 H   0  0  0  0  0  0
  1  3  2  0  0  0
  1  5  1  0  0  0
  1 21  1  0  0  0
  2  4  2  0  0  0
  2  6  1  0  0  0
  2 22  1  0  0  0
  3  7  1  0  0  0
  3 23  1  0  0  0
  4  8  1  0  0  0
  4 24  1  0  0  0
  5  9  2  0  0  0
  5 25  1  0  0  0
  6 10  2  0  0  0
  6 26  1  0  0  0
  7 11  2  0  0  0
  7 27  1  0  0  0
  8 12  2  0  0  0
  8 28  1  0  0  0
  9 11  1  0  0  0
  9 18  1  0  0  0
 10 12  1  0  0  0
 10 18  1  0  0  0
 11 20  1  0  0  0
 12 20  1  0  0  0
 13 17  1  0  0  0
 13 29  1  0  0  0
 13 30  1  0  0  0
 13 31  1  0  0  0
 14 19  1  0  0  0
 14 32  1  0  0  0
 14 33  1  0  0  0
 14 34  1  0  0  0
 15 19  1  0  0  0
 15 35  1  0  0  0
 15 36  1  0  0  0
 15 37  1  0  0  0
 16 17  1  0  0  0
 16 18  1  0  0  0
 16 38  1  0  0  0
 16 39  1  0  0  0
 17 19  1  0  0  0
 17 40  1  0  0  0
 19 41  1  0  0  0
M  CHG  1  19   1
M  END
> <s_m_entry_id>
569

> <s_m_entry_name>
PMT1aspR.1

> <s_m_Source_Path>
/home/emilio/Dropbox/SAMPL9-eglab/mCD/ligsdfs

> <s_m_Source_File>
PMT1aspR.sdf

> <i_m_Source_File_Index>
1

> <i_lp_mmshare_version>
47013

> <s_epik_input>
W2NIXTFbY0hdW2NIXVtjSF1jKGMxMilTYzNjKFtjSF1bY0hdW2NIXVtjSF0zKU4yW0NIMl1bQ0BIXShbQ0gzXSlOKFtDSDNdKVtDSDNd

> <s_epik_cmdline>
J2VwaWtfcHl0aG9uJywgJy1waHQnLCAnNC4wJywgJy1waCcsICc3LjQnLCAnLXRuJywgJzgnLCAnLW1hJywgJzIwMCcsICctaW1hZScsICc8aW5maWxlLm1hZT4nLCAnLW9tYWUnLCAnPG91dGZpbGUubWFlPic=

> <r_epik_Ionization_Penalty>
  0.0045

> <r_epik_Ionization_Penalty_Charging>
  0.0045

> <r_epik_Ionization_Penalty_Neutral>
  0.0000

> <r_epik_State_Penalty>
  0.0032

> <r_epik_Charging_Adjusted_Penalty>
0.00770832931686598

> <i_epik_Tot_Q>
1

> <i_epik_Tot_abs_Q>
1

> <s_lp_Force_Field>
OPLS3e

> <r_lp_Energy>
58.361695

> <b_lp_Chiralities_Consistent>
1

> <s_lp_Variant>
PMT-1

> <s_m_job_name>
ligprep_4

> <chiral flag>
1

> <version>
0

> <i_f3d_flags>
0

> <s_m_subgroup_title>
mCDq->spR d_copy1

> <s_m_subgroupid>
mCDq->spR_copy2

> <b_m_subgroup_collapsed>
0

$$$$
