@<TRIPOS>MOLECULE
bCDffe
147   154    1
SMALL
USER_CHARGES


@<TRIPOS>ATOM
      1 C1         23.8786  110.5762   45.7637 Du        1 LIG         0.4296 
      2 C2         22.3672  110.3650   45.8271 Du        1 LIG         0.2020 
      3 C3         21.7487  110.5150   44.4310 Du        1 LIG         0.2164 
      4 C4         22.1772  111.8571   43.8278 Du        1 LIG         0.1926 
      5 C5         23.6991  111.9692   43.7985 Du        1 LIG         0.1926 
      6 C6         24.1271  113.3873   43.4008 Du        1 LIG         0.1802 
      7 C7         27.7163  106.9481   45.1074 Du        1 LIG         0.4296 
      8 C8         26.4438  106.4679   45.7072 Du        1 LIG         0.2020 
      9 C9         25.2510  107.3369   45.2952 Du        1 LIG         0.2164 
     10 C10        25.5466  108.7574   45.5291 Du        1 LIG         0.1926 
     11 C11        26.8314  109.1512   44.8020 Du        1 LIG         0.1926 
     12 C12        27.2918  110.6051   44.9220 Du        1 LIG         0.1802 
     13 C13        30.1563  105.1858   40.7682 Du        1 LIG         0.4296 
     14 C14        29.1751  104.2078   41.3785 Du        1 LIG         0.2020 
     15 C15        28.0910  105.0001   42.1159 Du        1 LIG         0.2164 
     16 C16        28.7324  105.7657   43.0117 Du        1 LIG         0.1926 
     17 C17        29.8078  106.8162   42.4952 Du        1 LIG         0.1926 
     18 C18        30.6230  107.5428   43.4898 Du        1 LIG         0.1802 
     19 C19        29.6296  107.3984   35.9690 Du        1 LIG         0.4296 
     20 C20        29.6350  105.8589   36.0927 Du        1 LIG         0.2020 
     21 C21        29.1911  105.4917   37.5003 Du        1 LIG         0.2164 
     22 C22        30.0725  106.1791   38.5158 Du        1 LIG         0.1926 
     23 C23        30.1172  107.6837   38.2611 Du        1 LIG         0.1926 
     24 C24        31.2082  108.3619   39.1459 Du        1 LIG         0.1802 
     25 C25        25.4400  110.2077   34.2795 Du        1 LIG         0.4296 
     26 C26        25.5372  108.7375   33.8791 Du        1 LIG         0.2020 
     27 C27        26.2850  107.9405   34.9274 Du        1 LIG         0.2164 
     28 C28        27.6498  108.5521   35.1432 Du        1 LIG         0.1926 
     29 C29        27.4749  110.0098   35.5331 Du        1 LIG         0.1926 
     30 C30        28.8149  110.7637   35.7173 Du        1 LIG         0.1802 
     31 C31        21.5025  112.6080   36.8987 Du        1 LIG         0.4296 
     32 C32        21.1636  111.4714   35.9291 Du        1 LIG         0.2020 
     33 C33        22.3327  110.5008   35.8474 Du        1 LIG         0.2164 
     34 C34        23.5786  111.2547   35.4395 Du        1 LIG         0.1926 
     35 C35        23.8596  112.3780   36.4441 Du        1 LIG         0.1926 
     36 C36        25.0329  113.2645   36.0632 Du        1 LIG         0.1802 
     37 C37        20.7734  112.8733   42.1339 Du        1 LIG         0.4296 
     38 C38        19.6511  112.2301   41.3098 Du        1 LIG         0.2020 
     39 C39        20.2133  111.6530   40.0083 Du        1 LIG         0.2164 
     40 C40        20.9671  112.7353   39.2610 Du        1 LIG         0.1926 
     41 C41        22.0123  113.4296   40.1292 Du        1 LIG         0.1926 
     42 C42        22.5745  114.6896   39.4886 Du        1 LIG         0.1802 
     43 O1         22.0910  109.0723   46.3685 Du        1 LIG        -0.7411 
     44 O2         20.3216  110.5034   44.5344 Du        1 LIG        -0.7411 
     45 O3         21.6823  111.8413   42.4753 Du        1 LIG        -0.5442 
     46 O4         24.1771  111.8232   45.1765 Du        1 LIG        -0.5442 
     47 O5         25.5222  113.4059   43.2508 Du        1 LIG        -0.7411 
     48 O6         26.2322  105.0986   45.3083 Du        1 LIG        -0.7411 
     49 O7         24.0773  106.9056   46.0454 Du        1 LIG        -0.7411 
     50 O8         24.4348  109.5168   44.9870 Du        1 LIG        -0.5442 
     51 O9         27.9048  108.3322   45.3460 Du        1 LIG        -0.5442 
     52 O10        28.2269  110.8545   44.1152 Du        1 LIG        -0.7411 
     53 O11        28.5950  103.3660   40.3743 Du        1 LIG        -0.7411 
     54 O12        27.2062  104.1064   42.8071 Du        1 LIG        -0.7411 
     55 O13        27.6825  106.7001   43.6939 Du        1 LIG        -0.5442 
     56 O14        30.7440  105.9936   41.7510 Du        1 LIG        -0.5442 
     57 O15        31.2397  106.6216   44.3934 Du        1 LIG        -0.7411 
     58 O16        28.7560  105.2782   35.1326 Du        1 LIG        -0.7411 
     59 O17        29.2421  104.0666   37.6829 Du        1 LIG        -0.7411 
     60 O18        29.4589  105.9586   39.8062 Du        1 LIG        -0.5442 
     61 O19        30.4879  107.9507   36.9178 Du        1 LIG        -0.5442 
     62 O20        31.1705  109.7570   38.9807 Du        1 LIG        -0.7411 
     63 O21        24.2013  108.2210   33.6724 Du        1 LIG        -0.7411 
     64 O22        26.3966  106.5836   34.4976 Du        1 LIG        -0.7411 
     65 O23        28.2894  107.8396   36.1827 Du        1 LIG        -0.5442 
     66 O24        26.7537  110.7270   34.5142 Du        1 LIG        -0.5442 
     67 O25        29.6821  110.6071   34.6384 Du        1 LIG        -0.7411 
     68 O26        19.9578  110.8286   36.4213 Du        1 LIG        -0.7411 
     69 O27        22.0302  109.4853   34.8695 Du        1 LIG        -0.7411 
     70 O28        24.6595  110.3110   35.4506 Du        1 LIG        -0.5442 
     71 O29        22.6993  113.2508   36.4673 Du        1 LIG        -0.5442 
     72 O30        24.8864  113.8661   34.7838 Du        1 LIG        -0.7411 
     73 O31        19.0023  111.1963   42.0753 Du        1 LIG        -0.7411 
     74 O32        19.1384  111.1579   39.1862 Du        1 LIG        -0.7411 
     75 O33        21.6467  112.0800   38.1961 Du        1 LIG        -0.5442 
     76 O34        21.3959  113.8873   41.3802 Du        1 LIG        -0.5442 
     77 O35        21.5135  115.6103   39.2292 Du        1 LIG        -0.7411 
     78 H1         27.6431  110.7845   45.9388 Du        1 LIG         0.0656 
     79 H2         26.4514  111.2637   44.7065 Du        1 LIG         0.0656 
     80 H3         22.4856  108.4219   45.7838 Du        1 LIG         0.4917 
     81 H4         20.0648  111.2419   45.0913 Du        1 LIG         0.4917 
     82 H5         25.7528  112.7437   42.5957 Du        1 LIG         0.4917 
     83 H6         26.1643  105.0828   44.3510 Du        1 LIG         0.4917 
     84 H7         24.2648  107.0352   46.9778 Du        1 LIG         0.4917 
     85 H8         28.9554  110.2642   44.3236 Du        1 LIG         0.4917 
     86 H9         28.1425  103.9330   39.7455 Du        1 LIG         0.4917 
     87 H10        27.7340  103.5951   43.4244 Du        1 LIG         0.4917 
     88 H11        30.5402  106.1261   44.8253 Du        1 LIG         0.4917 
     89 H12        27.8759  105.6226   35.2989 Du        1 LIG         0.4917 
     90 H13        30.1508  103.7891   37.5471 Du        1 LIG         0.4917 
     91 H14        30.2979  110.0578   39.2452 Du        1 LIG         0.4917 
     92 H15        23.7251  108.3087   34.5023 Du        1 LIG         0.4917 
     93 H16        26.9024  106.5778   33.6820 Du        1 LIG         0.4917 
     94 H17        29.2527  110.9795   33.8640 Du        1 LIG         0.4917 
     95 H18        20.1564  110.4627   37.2864 Du        1 LIG         0.4917 
     96 H19        21.8769  109.9270   34.0309 Du        1 LIG         0.4917 
     97 H20        24.0687  114.3680   34.7914 Du        1 LIG         0.4917 
     98 H21        19.6650  110.5352   42.2901 Du        1 LIG         0.4917 
     99 H22        18.5512  111.8940   39.0012 Du        1 LIG         0.4917 
    100 H23        20.8846  115.1734   38.6505 Du        1 LIG         0.4917 
    101 H24        24.2937  110.5191   46.7732 Du        1 LIG         0.0648 
    102 H25        21.9304  111.1224   46.4717 Du        1 LIG         0.0618 
    103 H26        22.0991  109.6974   43.8094 Du        1 LIG         0.0541 
    104 H27        21.7654  112.6870   44.3988 Du        1 LIG         0.0557 
    105 H28        24.1691  111.1902   43.1258 Du        1 LIG         0.0557 
    106 H29        23.6556  113.6904   42.4225 Du        1 LIG         0.0656 
    107 H30        23.7494  114.1271   44.1466 Du        1 LIG         0.0656 
    108 H31        28.5553  106.3879   45.5521 Du        1 LIG         0.0648 
    109 H32        26.5204  106.4893   46.7865 Du        1 LIG         0.0618 
    110 H33        25.0449  107.1915   44.2107 Du        1 LIG         0.0541 
    111 H34        25.6384  108.9491   46.6082 Du        1 LIG         0.0557 
    112 H35        26.7212  108.9422   43.7347 Du        1 LIG         0.0557 
    113 H36        30.9508  104.6193   40.2333 Du        1 LIG         0.0648 
    114 H37        29.6932  103.5815   42.1028 Du        1 LIG         0.0618 
    115 H38        27.5330  105.6096   41.3956 Du        1 LIG         0.0541 
    116 H39        29.2251  105.2686   43.9048 Du        1 LIG         0.0557 
    117 H40        29.3143  107.5141   41.8104 Du        1 LIG         0.0557 
    118 H41        29.9949  108.2778   44.0294 Du        1 LIG         0.0656 
    119 H42        31.4128  108.1362   42.9689 Du        1 LIG         0.0656 
    120 H43        29.9576  107.6964   34.9766 Du        1 LIG         0.0648 
    121 H44        30.6438  105.4819   35.9228 Du        1 LIG         0.0618 
    122 H45        28.1684  105.8338   37.6495 Du        1 LIG         0.0541 
    123 H46        31.0754  105.7551   38.4697 Du        1 LIG         0.0557 
    124 H47        29.1542  108.1429   38.4992 Du        1 LIG         0.0557 
    125 H48        31.0603  108.0919   40.1999 Du        1 LIG         0.0656 
    126 H49        32.2059  107.9659   38.8495 Du        1 LIG         0.0656 
    127 H50        24.9924  110.7786   33.4476 Du        1 LIG         0.0648 
    128 H51        26.0835  108.6368   32.9304 Du        1 LIG         0.0618 
    129 H52        25.7136  107.9833   35.8558 Du        1 LIG         0.0541 
    130 H53        28.2315  108.4932   34.2254 Du        1 LIG         0.0557 
    131 H54        26.8951  110.0669   36.4450 Du        1 LIG         0.0557 
    132 H55        28.6132  111.8009   35.9086 Du        1 LIG         0.0656 
    133 H56        29.2949  110.3376   36.6228 Du        1 LIG         0.0656 
    134 H57        20.6803  113.3330   36.8980 Du        1 LIG         0.0648 
    135 H58        20.9686  111.9036   34.9334 Du        1 LIG         0.0618 
    136 H59        22.5152  110.0531   36.8193 Du        1 LIG         0.0541 
    137 H60        23.4338  111.6703   34.4217 Du        1 LIG         0.0557 
    138 H61        24.0084  111.9289   37.4407 Du        1 LIG         0.0557 
    139 H62        25.1374  114.0622   36.8135 Du        1 LIG         0.0656 
    140 H63        25.9621  112.6785   36.0900 Du        1 LIG         0.0656 
    141 H64        20.3507  113.2965   43.0629 Du        1 LIG         0.0648 
    142 H65        18.9220  112.9838   41.0585 Du        1 LIG         0.0618 
    143 H66        20.9140  110.8308   40.2425 Du        1 LIG         0.0541 
    144 H67        20.2554  113.4751   38.8658 Du        1 LIG         0.0557 
    145 H68        22.8290  112.7237   40.3543 Du        1 LIG         0.0557 
    146 H69        23.0774  114.4456   38.5438 Du        1 LIG         0.0656 
    147 H70        23.3188  115.1559   40.1524 Du        1 LIG         0.0656 
@<TRIPOS>BOND
     1    1    2 1    
     2    1   46 1    
     3    1   50 1    
     4    1  101 1    
     5    2    3 1    
     6    2   43 1    
     7    2  102 1    
     8    3    4 1    
     9    3   44 1    
    10    3  103 1    
    11    4    5 1    
    12    4   45 1    
    13    4  104 1    
    14    5    6 1    
    15    5   46 1    
    16    5  105 1    
    17    6   47 1    
    18    6  106 1    
    19    6  107 1    
    20    7    8 1    
    21    7   51 1    
    22    7   55 1    
    23    7  108 1    
    24    8    9 1    
    25    8   48 1    
    26    8  109 1    
    27    9   10 1    
    28    9   49 1    
    29    9  110 1    
    30   10   11 1    
    31   10   50 1    
    32   10  111 1    
    33   11   12 1    
    34   11   51 1    
    35   11  112 1    
    36   12   52 1    
    37   12   78 1    
    38   12   79 1    
    39   13   14 1    
    40   13   56 1    
    41   13   60 1    
    42   13  113 1    
    43   14   15 1    
    44   14   53 1    
    45   14  114 1    
    46   15   16 1    
    47   15   54 1    
    48   15  115 1    
    49   16   17 1    
    50   16   55 1    
    51   16  116 1    
    52   17   18 1    
    53   17   56 1    
    54   17  117 1    
    55   18   57 1    
    56   18  118 1    
    57   18  119 1    
    58   19   20 1    
    59   19   61 1    
    60   19   65 1    
    61   19  120 1    
    62   20   21 1    
    63   20   58 1    
    64   20  121 1    
    65   21   22 1    
    66   21   59 1    
    67   21  122 1    
    68   22   23 1    
    69   22   60 1    
    70   22  123 1    
    71   23   24 1    
    72   23   61 1    
    73   23  124 1    
    74   24   62 1    
    75   24  125 1    
    76   24  126 1    
    77   25   26 1    
    78   25   66 1    
    79   25   70 1    
    80   25  127 1    
    81   26   27 1    
    82   26   63 1    
    83   26  128 1    
    84   27   28 1    
    85   27   64 1    
    86   27  129 1    
    87   28   29 1    
    88   28   65 1    
    89   28  130 1    
    90   29   30 1    
    91   29   66 1    
    92   29  131 1    
    93   30   67 1    
    94   30  132 1    
    95   30  133 1    
    96   31   32 1    
    97   31   71 1    
    98   31   75 1    
    99   31  134 1    
   100   32   33 1    
   101   32   68 1    
   102   32  135 1    
   103   33   34 1    
   104   33   69 1    
   105   33  136 1    
   106   34   35 1    
   107   34   70 1    
   108   34  137 1    
   109   35   36 1    
   110   35   71 1    
   111   35  138 1    
   112   36   72 1    
   113   36  139 1    
   114   36  140 1    
   115   37   38 1    
   116   37   45 1    
   117   37   76 1    
   118   37  141 1    
   119   38   39 1    
   120   38   73 1    
   121   38  142 1    
   122   39   40 1    
   123   39   74 1    
   124   39  143 1    
   125   40   41 1    
   126   40   75 1    
   127   40  144 1    
   128   41   42 1    
   129   41   76 1    
   130   41  145 1    
   131   42   77 1    
   132   42  146 1    
   133   42  147 1    
   134   43   80 1    
   135   44   81 1    
   136   47   82 1    
   137   48   83 1    
   138   49   84 1    
   139   52   85 1    
   140   53   86 1    
   141   54   87 1    
   142   57   88 1    
   143   58   89 1    
   144   59   90 1    
   145   62   91 1    
   146   63   92 1    
   147   64   93 1    
   148   67   94 1    
   149   68   95 1    
   150   69   96 1    
   151   72   97 1    
   152   73   98 1    
   153   74   99 1    
   154   77  100 1    
@<TRIPOS>SUBSTRUCTURE
     1 LIG         1 GROUP             0       ****    0 ROOT    
