CPZ1apsR
                    3D
 Schrodinger Suite 2019-4.
 41 43  0  0  1  0            999 V2000
   29.2762  116.3370   51.0158 C   0  0  0  0  0  0
   29.7986  115.5817   49.9495 C   0  0  0  0  0  0
   27.9760  116.8737   50.9282 C   0  0  0  0  0  0
   29.0174  115.3428   48.8051 C   0  0  0  0  0  0
   24.1350  114.5214   47.7003 C   0  0  0  0  0  0
   22.9013  114.4507   48.3695 C   0  0  0  0  0  0
   23.6056  116.2459   49.8672 C   0  0  0  0  0  0
   27.1890  116.6517   49.7782 C   0  0  0  0  0  0
   24.8609  116.3026   49.2236 C   0  0  0  0  0  0
   27.7106  115.8652   48.7223 C   0  0  0  0  0  0
   25.1142  115.4400   48.1245 C   0  0  0  0  0  0
   22.6371  115.3132   49.4493 C   0  0  0  0  0  0
   25.8137  118.7364   44.7405 C   0  0  0  0  0  0
   25.2364  120.6419   46.1696 C   0  0  0  0  0  0
   26.2461  119.4116   48.5288 C   0  0  0  0  0  0
   25.6189  118.5576   49.6676 C   0  0  0  0  0  0
   26.1805  118.6108   47.1986 C   0  0  0  0  0  0
   25.8713  117.1428   49.7235 N   0  0  0  0  0  0
   26.1284  119.4759   45.9938 N   0  3  0  0  0  0
   26.6968  115.4534   47.3343 S   0  0  0  0  0  0
   21.1399  115.1959   50.2970 Cl  0  0  0  0  0  0
   29.8580  116.4771   51.9159 H   0  0  0  0  0  0
   30.7820  115.1399   50.0315 H   0  0  0  0  0  0
   27.5683  117.4222   51.7648 H   0  0  0  0  0  0
   29.3947  114.7201   48.0096 H   0  0  0  0  0  0
   24.3504  113.8394   46.8928 H   0  0  0  0  0  0
   22.1710  113.7063   48.0847 H   0  0  0  0  0  0
   23.4076  116.8725   50.7236 H   0  0  0  0  0  0
   24.8565  118.2182   44.8154 H   0  0  0  0  0  0
   26.5797  118.0028   44.4980 H   0  0  0  0  0  0
   25.7607  119.4187   43.8916 H   0  0  0  0  0  0
   24.1924  120.3373   46.2855 H   0  0  0  0  0  0
   25.2919  121.3099   45.3073 H   0  0  0  0  0  0
   25.5137  121.2316   47.0474 H   0  0  0  0  0  0
   25.7312  120.3705   48.4063 H   0  0  0  0  0  0
   27.2982  119.6190   48.7168 H   0  0  0  0  0  0
   25.7928  119.0127   50.6565 H   0  0  0  0  0  0
   24.5278  118.4766   49.4745 H   0  0  0  0  0  0
   27.0296  117.9302   47.1362 H   0  0  0  0  0  0
   25.2945  117.9762   47.2258 H   0  0  0  0  0  0
   27.0617  119.8556   45.8797 H   0  0  0  0  0  0
  1  2  2  0  0  0
  1  3  1  0  0  0
  1 22  1  0  0  0
  2  4  1  0  0  0
  2 23  1  0  0  0
  3  8  2  0  0  0
  3 24  1  0  0  0
  4 10  2  0  0  0
  4 25  1  0  0  0
  5  6  2  0  0  0
  5 11  1  0  0  0
  5 26  1  0  0  0
  6 12  1  0  0  0
  6 27  1  0  0  0
  7  9  1  0  0  0
  7 12  2  0  0  0
  7 28  1  0  0  0
  8 10  1  0  0  0
  8 18  1  0  0  0
  9 11  2  0  0  0
  9 18  1  0  0  0
 10 20  1  0  0  0
 11 20  1  0  0  0
 12 21  1  0  0  0
 13 19  1  0  0  0
 13 29  1  0  0  0
 13 30  1  0  0  0
 13 31  1  0  0  0
 14 19  1  0  0  0
 14 32  1  0  0  0
 14 33  1  0  0  0
 14 34  1  0  0  0
 15 16  1  0  0  0
 15 17  1  0  0  0
 15 35  1  0  0  0
 15 36  1  0  0  0
 16 18  1  0  0  0
 16 37  1  0  0  0
 16 38  1  0  0  0
 17 19  1  0  0  0
 17 39  1  0  0  0
 17 40  1  0  0  0
 19 41  1  0  0  0
M  CHG  1  19   1
M  END
> <i_m_stars>
0

> <s_m_entry_id>
610

> <s_m_Source_Path>
/home/emilio/Dropbox/SAMPL9-eglab/mCD/ligsdfs

> <s_m_Source_File>
CPZ1apsR.sdf

> <i_m_Source_File_Index>
1

> <r_epik_Ionization_Penalty>
  0.0036

> <r_epik_State_Penalty>
  0.0025

> <i_epik_Tot_Q>
1

> <s_m_job_name>
ligprep_4

> <i_f3d_flags>
0

$$$$
