@<TRIPOS>MOLECULE
LIG
41 43
SMALL
USER_CHARGES
@<TRIPOS>ATOM
      1 C1         29.2762  116.3370   51.0158 AA             0 LIG     -0.148984
      2 C2         29.7986  115.5817   49.9495 AB             0 LIG     -0.148984
      3 C3         27.9760  116.8737   50.9282 AD             0 LIG     -0.216162
      4 C4         29.0174  115.3428   48.8051 AE             0 LIG     -0.191448
      5 C5         24.1350  114.5214   47.7003 AF             0 LIG     -0.191448
      6 C6         22.9013  114.4507   48.3695 AH             0 LIG     -0.201273
      7 C7         23.6056  116.2459   49.8672 AI             0 LIG     -0.282378
      8 C8         27.1890  116.6517   49.7782 AJ             0 LIG     0.090825
      9 C9         24.8609  116.3026   49.2236 AK             0 LIG     0.090825
     10 C10        27.7106  115.8652   48.7223 AN             0 LIG     0.113170
     11 C11        25.1142  115.4400   48.1245 AO             0 LIG     0.113170
     12 C12        22.6371  115.3132   49.4493 AP             0 LIG     0.139586
     13 C13        25.8137  118.7364   44.7405 AQ             0 LIG     -0.327670
     14 C14        25.2364  120.6419   46.1696 AV             0 LIG     -0.327670
     15 C15        26.2461  119.4116   48.5288 AW             0 LIG     -0.018552
     16 C16        25.6189  118.5576   49.6676 AX             0 LIG     0.030051
     17 C17        26.1805  118.6108   47.1986 AY             0 LIG     0.155353
     18 N1         25.8713  117.1428   49.7235 AZ             0 LIG     -0.186524
     19 N2         26.1284  119.4759   45.9938 BB             0 LIG     0.134459
     20 S1         26.6968  115.4534   47.3343 BC             0 LIG     -0.184949
     21 CL1        21.1399  115.1959   50.2970 BD             0 LIG     -0.163674
     22 H1         29.8580  116.4771   51.9159 BF             0 LIG     0.167367
     23 H2         30.7820  115.1399   50.0315 BG             0 LIG     0.167367
     24 H3         27.5683  117.4222   51.7648 BH             0 LIG     0.144463
     25 H4         29.3947  114.7201   48.0096 BJ             0 LIG     0.182657
     26 H5         24.3504  113.8394   46.8928 BK             0 LIG     0.182657
     27 H6         22.1710  113.7063   48.0847 BL             0 LIG     0.185066
     28 H7         23.4076  116.8725   50.7236 BM             0 LIG     0.159917
     29 H8         24.8565  118.2182   44.8154 BN             0 LIG     0.163775
     30 H9         26.5797  118.0028   44.4980 BO             0 LIG     0.163775
     31 H10        25.7607  119.4187   43.8916 BP             0 LIG     0.163775
     32 H11        24.1924  120.3373   46.2855 BQ             0 LIG     0.163775
     33 H12        25.2919  121.3099   45.3073 BS             0 LIG     0.163775
     34 H13        25.5137  121.2316   47.0474 BT             0 LIG     0.163775
     35 H14        25.7312  120.3705   48.4063 BU             0 LIG     0.042423
     36 H15        27.2982  119.6190   48.7168 BV             0 LIG     0.042423
     37 H16        25.7928  119.0127   50.6565 BW             0 LIG     0.092460
     38 H17        24.5278  118.4766   49.4745 BX             0 LIG     0.092460
     39 H18        27.0296  117.9302   47.1362 BY             0 LIG     0.021392
     40 H19        25.2945  117.9762   47.2258 BZ             0 LIG     0.021392
     41 H20        27.0617  119.8556   45.8797 CB             0 LIG     0.237587
@<TRIPOS>BOND
        1  1  2  2
        2  1  3  1
        3  1  22  1
        4  2  4  1
        5  2  23  1
        6  3  8  2
        7  3  24  1
        8  4  10  2
        9  4  25  1
        10  5  6  1
        11  5  11  2
        12  5  26  1
        13  6  12  2
        14  6  27  1
        15  7  9  2
        16  7  12  1
        17  7  28  1
        18  8  10  1
        19  8  18  1
        20  9  11  1
        21  9  18  1
        22  10  20  1
        23  11  20  1
        24  12  21  1
        25  13  19  1
        26  13  29  1
        27  13  30  1
        28  13  31  1
        29  14  19  1
        30  14  32  1
        31  14  33  1
        32  14  34  1
        33  15  16  1
        34  15  17  1
        35  15  35  1
        36  15  36  1
        37  16  18  1
        38  16  37  1
        39  16  38  1
        40  17  19  1
        41  17  39  1
        42  17  40  1
        43  19  41  1
@<TRIPOS>SUBSTRUCTURE
       1 LIG             1 RESIDUE    0 **** ROOT      0

