PMT1apsR
                    3D
 Schrodinger Suite 2019-4.
 41 43  0  0  1  0            999 V2000
   29.3372  116.4143   50.9408 C   0  0  0  0  0  0
   22.6396  115.3103   49.4446 C   0  0  0  0  0  0
   29.8266  115.6047   49.8942 C   0  0  0  0  0  0
   22.8830  114.4972   48.3179 C   0  0  0  0  0  0
   28.0266  116.9357   50.8790 C   0  0  0  0  0  0
   23.6289  116.2062   49.9016 C   0  0  0  0  0  0
   29.0158  115.3319   48.7782 C   0  0  0  0  0  0
   24.1193  114.5743   47.6526 C   0  0  0  0  0  0
   27.1944  116.6449   49.7774 C   0  0  0  0  0  0
   24.8695  116.2935   49.2358 C   0  0  0  0  0  0
   27.7020  115.8387   48.7284 C   0  0  0  0  0  0
   25.1119  115.4562   48.1189 C   0  0  0  0  0  0
   26.0360  120.6367   48.1780 C   0  0  0  0  0  0
   26.2709  118.8694   45.9945 C   0  0  0  0  0  0
   24.4474  118.0436   47.3763 C   0  0  0  0  0  0
   25.7474  118.5779   49.8392 C   0  0  0  0  0  0
   26.3308  119.1128   48.4705 C   0  0  1  0  0  0
   25.8757  117.1485   49.7264 N   0  0  0  0  0  0
   25.9031  118.2968   47.3275 N   0  3  0  0  0  0
   26.6898  115.4511   47.3357 S   0  0  0  0  0  0
   29.9722  116.6332   51.7907 H   0  0  0  0  0  0
   21.6995  115.2197   49.9758 H   0  0  0  0  0  0
   30.8247  115.2000   49.9412 H   0  0  0  0  0  0
   22.1328  113.7947   47.9789 H   0  0  0  0  0  0
   27.6620  117.5424   51.6954 H   0  0  0  0  0  0
   23.4435  116.7896   50.7903 H   0  0  0  0  0  0
   29.3926  114.7286   47.9646 H   0  0  0  0  0  0
   24.3253  113.9257   46.8120 H   0  0  0  0  0  0
   26.3008  121.3828   48.9263 H   0  0  0  0  0  0
   24.9716  120.7880   47.9539 H   0  0  0  0  0  0
   26.6219  120.9965   47.3287 H   0  0  0  0  0  0
   25.9195  119.8890   45.8621 H   0  0  0  0  0  0
   25.8378  118.2619   45.2067 H   0  0  0  0  0  0
   27.3405  118.8596   45.8139 H   0  0  0  0  0  0
   23.8786  118.9775   47.4683 H   0  0  0  0  0  0
   24.1723  117.4161   48.2327 H   0  0  0  0  0  0
   24.0929  117.4810   46.5173 H   0  0  0  0  0  0
   26.2822  118.9550   50.7206 H   0  0  0  0  0  0
   24.6872  118.7502   49.9842 H   0  0  0  0  0  0
   27.4093  118.9978   48.5002 H   0  0  0  0  0  0
   26.3861  117.4405   47.4265 H   0  0  0  0  0  0
  1  3  2  0  0  0
  1  5  1  0  0  0
  1 21  1  0  0  0
  2  4  2  0  0  0
  2  6  1  0  0  0
  2 22  1  0  0  0
  3  7  1  0  0  0
  3 23  1  0  0  0
  4  8  1  0  0  0
  4 24  1  0  0  0
  5  9  2  0  0  0
  5 25  1  0  0  0
  6 10  2  0  0  0
  6 26  1  0  0  0
  7 11  2  0  0  0
  7 27  1  0  0  0
  8 12  2  0  0  0
  8 28  1  0  0  0
  9 11  1  0  0  0
  9 18  1  0  0  0
 10 12  1  0  0  0
 10 18  1  0  0  0
 11 20  1  0  0  0
 12 20  1  0  0  0
 13 17  1  0  0  0
 13 29  1  0  0  0
 13 30  1  0  0  0
 13 31  1  0  0  0
 14 19  1  0  0  0
 14 32  1  0  0  0
 14 33  1  0  0  0
 14 34  1  0  0  0
 15 19  1  0  0  0
 15 35  1  0  0  0
 15 36  1  0  0  0
 15 37  1  0  0  0
 16 17  1  0  0  0
 16 18  1  0  0  0
 16 38  1  0  0  0
 16 39  1  0  0  0
 17 19  1  0  0  0
 17 40  1  0  0  0
 19 41  1  0  0  0
M  CHG  1  19   1
M  END
> <i_m_stars>
0

> <s_m_entry_id>
612

> <s_m_Source_Path>
/home/emilio/Dropbox/SAMPL9-eglab/mCD/ligsdfs

> <s_m_Source_File>
PMT1apsR.sdf

> <i_m_Source_File_Index>
1

> <r_epik_Ionization_Penalty>
  0.0045

> <r_epik_State_Penalty>
  0.0032

> <i_epik_Tot_Q>
1

> <s_m_job_name>
ligprep_4

> <i_f3d_flags>
0

$$$$
