@<TRIPOS>MOLECULE
LIG
41 43
SMALL
USER_CHARGES
@<TRIPOS>ATOM
      1 C1         29.3372  116.4143   50.9408 AA             0 LIG     -0.150100
      2 C2         22.6396  115.3103   49.4446 AB             0 LIG     -0.150100
      3 C3         29.8266  115.6047   49.8942 AD             0 LIG     -0.150100
      4 C4         22.8830  114.4972   48.3179 AE             0 LIG     -0.150100
      5 C5         28.0266  116.9357   50.8790 AF             0 LIG     -0.220762
      6 C6         23.6289  116.2062   49.9016 AH             0 LIG     -0.220762
      7 C7         29.0158  115.3319   48.7782 AI             0 LIG     -0.190531
      8 C8         24.1193  114.5743   47.6526 AJ             0 LIG     -0.190531
      9 C9         27.1944  116.6449   49.7774 AK             0 LIG     0.084657
     10 C10        24.8695  116.2935   49.2358 AN             0 LIG     0.084657
     11 C11        27.7020  115.8387   48.7284 AO             0 LIG     0.115853
     12 C12        25.1119  115.4562   48.1189 AP             0 LIG     0.115853
     13 C13        26.0360  120.6367   48.1780 AQ             0 LIG     -0.353988
     14 C14        26.2709  118.8694   45.9945 AV             0 LIG     -0.185375
     15 C15        24.4474  118.0436   47.3763 AW             0 LIG     -0.185375
     16 C16        25.7474  118.5779   49.8392 AX             0 LIG     0.002465
     17 C17        26.3308  119.1128   48.4705 AY             1 LIG     0.085935
     18 N1         25.8757  117.1485   49.7264 AZ             0 LIG     -0.190232
     19 N2         25.9031  118.2968   47.3275 BB             0 LIG     0.109280
     20 S1         26.6898  115.4511   47.3357 BC             0 LIG     -0.188456
     21 H1         29.9722  116.6332   51.7907 BD             0 LIG     0.166423
     22 H2         21.6995  115.2197   49.9758 BF             0 LIG     0.166423
     23 H3         30.8247  115.2000   49.9412 BG             0 LIG     0.166423
     24 H4         22.1328  113.7947   47.9789 BH             0 LIG     0.166423
     25 H5         27.6620  117.5424   51.6954 BJ             0 LIG     0.128375
     26 H6         23.4435  116.7896   50.7903 BK             0 LIG     0.128375
     27 H7         29.3926  114.7286   47.9646 BL             0 LIG     0.178440
     28 H8         24.3253  113.9257   46.8120 BM             0 LIG     0.178440
     29 H9         26.3008  121.3828   48.9263 BN             0 LIG     0.122803
     30 H10        24.9716  120.7880   47.9539 BO             0 LIG     0.122803
     31 H11        26.6219  120.9965   47.3287 BP             0 LIG     0.122803
     32 H12        25.9195  119.8890   45.8621 BQ             0 LIG     0.123915
     33 H13        25.8378  118.2619   45.2067 BS             0 LIG     0.123915
     34 H14        27.3405  118.8596   45.8139 BT             0 LIG     0.123915
     35 H15        23.8786  118.9775   47.4683 BU             0 LIG     0.123915
     36 H16        24.1723  117.4161   48.2327 BV             0 LIG     0.123915
     37 H17        24.0929  117.4810   46.5173 BW             0 LIG     0.123915
     38 H18        26.2822  118.9550   50.7206 BX             0 LIG     0.090289
     39 H19        24.6872  118.7502   49.9842 BY             0 LIG     0.090289
     40 H20        27.4093  118.9978   48.5002 BZ             0 LIG     0.141962
     41 H21        26.3861  117.4405   47.4265 CB             0 LIG     0.213953
@<TRIPOS>BOND
        1  1  3  2
        2  1  5  1
        3  1  21  1
        4  2  4  2
        5  2  6  1
        6  2  22  1
        7  3  7  1
        8  3  23  1
        9  4  8  1
        10  4  24  1
        11  5  9  2
        12  5  25  1
        13  6  10  2
        14  6  26  1
        15  7  11  2
        16  7  27  1
        17  8  12  2
        18  8  28  1
        19  9  11  1
        20  9  18  1
        21  10  12  1
        22  10  18  1
        23  11  20  1
        24  12  20  1
        25  13  17  1
        26  13  29  1
        27  13  30  1
        28  13  31  1
        29  14  19  1
        30  14  32  1
        31  14  33  1
        32  14  34  1
        33  15  19  1
        34  15  35  1
        35  15  36  1
        36  15  37  1
        37  16  17  1
        38  16  18  1
        39  16  38  1
        40  16  39  1
        41  17  19  1
        42  17  40  1
        43  19  41  1
@<TRIPOS>SUBSTRUCTURE
       1 LIG             1 RESIDUE    0 **** ROOT      0

