@<TRIPOS>MOLECULE
LIG
41 43
SMALL
USER_CHARGES
@<TRIPOS>ATOM
      1 C1         29.1630  116.5670   51.0770 PA             0 LIG     -0.151978
      2 C2         22.6383  115.3164   49.4523 PB             0 LIG     -0.151978
      3 C3         29.7549  115.8426   50.0155 PD             0 LIG     -0.151978
      4 C4         22.8734  114.4581   48.4079 PE             0 LIG     -0.151978
      5 C5         27.8362  117.0047   50.9596 PF             0 LIG     -0.221382
      6 C6         23.6299  116.2301   49.8503 PH             0 LIG     -0.221382
      7 C7         29.0285  115.4990   48.8938 PI             0 LIG     -0.192007
      8 C8         24.0646  114.5587   47.6742 PJ             0 LIG     -0.192007
      9 C9         27.1531  116.6531   49.8545 PK             0 LIG     0.086899
     10 C10        24.9206  116.1996   49.3267 PN             0 LIG     0.086899
     11 C11        27.7212  115.8945   48.7705 PO             0 LIG     0.115779
     12 C12        25.2178  115.3149   48.2384 PP             0 LIG     0.115779
     13 C13        27.0028  119.3504   45.1164 PQ             0 LIG     -0.319173
     14 C14        25.7384  121.0106   46.2404 PV             0 LIG     -0.319173
     15 C15        26.2877  119.5032   48.9632 PW             0 LIG     -0.018118
     16 C16        25.5550  118.5238   49.9158 PX             0 LIG     0.036275
     17 C17        26.3816  118.9324   47.4699 PY             0 LIG     0.012268
     18 N1         25.8633  117.1438   49.7276 PZ             0 LIG     -0.191498
     19 N2         26.8016  119.9880   46.4545 QB             0 LIG     0.153200
     20 S1         26.7034  115.4499   47.3267 QC             0 LIG     -0.201542
     21 H1         29.7683  116.7751   51.9829 QD             0 LIG     0.160898
     22 H2         21.6760  115.2476   49.9015 QF             0 LIG     0.160898
     23 H3         30.8136  115.6100   49.9996 QG             0 LIG     0.160898
     24 H4         22.0776  113.8093   48.0795 QH             0 LIG     0.160898
     25 H5         27.3388  117.4701   51.7837 QJ             0 LIG     0.134456
     26 H6         23.3784  116.9156   50.5952 QK             0 LIG     0.134456
     27 H7         29.4082  114.8839   48.0981 QL             0 LIG     0.174337
     28 H8         24.2021  114.0789   46.7074 QM             0 LIG     0.174337
     29 H9         27.7695  118.6191   45.1676 QN             0 LIG     0.158404
     30 H10        27.3646  120.1518   44.4589 QO             0 LIG     0.158404
     31 H11        26.0696  118.9329   44.7399 QP             0 LIG     0.158404
     32 H12        25.3161  121.1950   47.1675 QQ             0 LIG     0.158404
     33 H13        24.8325  120.6037   45.6993 QS             0 LIG     0.158404
     34 H14        26.1275  121.8687   45.7491 QT             0 LIG     0.158404
     35 H15        25.8167  120.4514   48.8903 QU             0 LIG     0.041463
     36 H16        27.3116  119.7195   49.2411 QV             0 LIG     0.041463
     37 H17        25.7712  118.8193   50.9305 QW             0 LIG     0.085391
     38 H18        24.4922  118.7600   49.7520 QX             0 LIG     0.085391
     39 H19        27.0464  118.0067   47.5291 QY             0 LIG     0.073022
     40 H20        25.4015  118.5168   47.1297 QZ             0 LIG     0.073022
     41 H21        27.6189  120.4341   46.7315 RB             0 LIG     0.265740
@<TRIPOS>BOND
        1  1  3  2
        2  1  5  1
        3  1  21  1
        4  2  4  2
        5  2  6  1
        6  2  22  1
        7  3  7  1
        8  3  23  1
        9  4  8  1
        10  4  24  1
        11  5  9  2
        12  5  25  1
        13  6  10  2
        14  6  26  1
        15  7  11  2
        16  7  27  1
        17  8  12  2
        18  8  28  1
        19  9  11  1
        20  9  18  1
        21  10  12  1
        22  10  18  1
        23  11  20  1
        24  12  20  1
        25  13  19  1
        26  13  29  1
        27  13  30  1
        28  13  31  1
        29  14  19  1
        30  14  32  1
        31  14  33  1
        32  14  34  1
        33  15  16  1
        34  15  17  1
        35  15  35  1
        36  15  36  1
        37  16  18  1
        38  16  37  1
        39  16  38  1
        40  17  19  1
        41  17  39  1
        42  17  40  1
        43  19  41  1
@<TRIPOS>SUBSTRUCTURE
       1 LIG             1 RESIDUE    0 **** ROOT      0

