@<TRIPOS>MOLECULE
LIG
52 55
SMALL
USER_CHARGES
@<TRIPOS>ATOM
      1 C1         29.3375  116.4024   50.9699 AA             0 LIG     -0.151259
      2 C2         29.8155  115.5757   49.9359 AB             0 LIG     -0.151259
      3 C3         28.0504  116.9700   50.8815 AD             0 LIG     -0.219304
      4 C4         29.0091  115.3141   48.8154 AE             0 LIG     -0.194592
      5 C5         24.0929  114.6151   47.6307 AF             0 LIG     -0.194592
      6 C6         22.8545  114.5393   48.2889 AH             0 LIG     -0.194592
      7 C7         23.6300  116.1742   49.9239 AI             0 LIG     -0.277127
      8 C8         27.2186  116.6940   49.7708 AJ             0 LIG     0.085655
      9 C9         24.8639  116.2920   49.2485 AK             0 LIG     0.085655
     10 C10        27.7138  115.8635   48.7324 AN             0 LIG     0.112307
     11 C11        25.1004  115.4716   48.1196 AO             0 LIG     0.112307
     12 C12        22.6302  115.3077   49.4469 AP             0 LIG     0.162844
     13 C13        29.1713  119.0406   46.8856 AQ             0 LIG     -0.032521
     14 C14        28.7419  120.1776   45.9555 AV             0 LIG     -0.034488
     15 C15        28.5755  119.2512   48.2833 AW             0 LIG     -0.055761
     16 C16        27.2118  120.2949   45.9237 AX             0 LIG     -0.006430
     17 C17        27.0344  119.3985   48.2447 AY             1 LIG     0.133288
     18 C18        25.1891  120.7703   47.2256 AZ             0 LIG     -0.176010
     19 C19        20.2492  113.6914   49.6388 BB             0 LIG     -0.159669
     20 C20        26.4347  119.6373   49.6594 BC             0 LIG     -0.036260
     21 C21        25.6022  118.4771   50.2686 BD             0 LIG     0.036576
     22 N1         25.8839  117.1432   49.7154 BF             0 LIG     -0.187743
     23 N2         26.6474  120.4908   47.2881 BG             2 LIG     -0.192054
     24 S1         26.6909  115.4592   47.3443 BH             0 LIG     -0.197945
     25 S2         21.0926  115.1580   50.3011 BJ             0 LIG     -0.259338
     26 H1         29.9442  116.5719   51.8472 BK             0 LIG     0.162335
     27 H2         30.7892  115.1131   50.0218 BL             0 LIG     0.162335
     28 H3         27.6937  117.5652   51.7079 BM             0 LIG     0.137375
     29 H4         29.3625  114.6569   48.0375 BN             0 LIG     0.176356
     30 H5         24.2931  113.9888   46.7748 BO             0 LIG     0.176356
     31 H6         22.0977  113.8509   47.9377 BP             0 LIG     0.176356
     32 H7         23.4713  116.7270   50.8358 BQ             0 LIG     0.141006
     33 H8         28.8436  118.0818   46.4788 BS             0 LIG     0.046484
     34 H9         30.2604  118.9886   46.9420 BT             0 LIG     0.046484
     35 H10        29.1932  121.1159   46.2846 BU             0 LIG     0.051372
     36 H11        29.1227  119.9985   44.9474 BV             0 LIG     0.051372
     37 H12        28.8611  118.3989   48.9025 BW             0 LIG     0.048966
     38 H13        29.0301  120.1277   48.7475 BX             0 LIG     0.048966
     39 H14        26.9404  121.1361   45.2843 BY             0 LIG     0.095743
     40 H15        26.7799  119.4028   45.4675 BZ             0 LIG     0.095743
     41 H16        26.6264  118.4573   47.8679 CB             0 LIG     0.086415
     42 H17        24.6263  119.8816   46.9376 CI             0 LIG     0.129026
     43 H18        24.9758  121.5533   46.4964 CJ             0 LIG     0.129026
     44 H19        24.8000  121.1302   48.1785 CK             0 LIG     0.129026
     45 H20        19.2089  113.6765   49.9656 CM             0 LIG     0.110256
     46 H21        20.7300  112.7797   49.9933 CN             0 LIG     0.110256
     47 H22        20.2640  113.6958   48.5477 CT             0 LIG     0.110256
     48 H23        27.2577  119.8709   50.3305 CW             0 LIG     0.037623
     49 H24        25.8008  120.5278   49.6248 DA             0 LIG     0.037623
     50 H25        25.8256  118.4263   51.3373 DB             0 LIG     0.084613
     51 H26        24.5359  118.6829   50.1761 DC             0 LIG     0.084613
     52 H27        27.0786  121.3340   47.6433 DD             0 LIG     0.326325
@<TRIPOS>BOND
        1  1  2  2
        2  1  3  1
        3  1  26  1
        4  2  4  1
        5  2  27  1
        6  3  8  2
        7  3  28  1
        8  4  10  2
        9  4  29  1
        10  5  6  1
        11  5  11  2
        12  5  30  1
        13  6  12  2
        14  6  31  1
        15  7  9  2
        16  7  12  1
        17  7  32  1
        18  8  10  1
        19  8  22  1
        20  9  11  1
        21  9  22  1
        22  10  24  1
        23  11  24  1
        24  12  25  1
        25  13  14  1
        26  13  15  1
        27  13  33  1
        28  13  34  1
        29  14  16  1
        30  14  35  1
        31  14  36  1
        32  15  17  1
        33  15  37  1
        34  15  38  1
        35  16  23  1
        36  16  39  1
        37  16  40  1
        38  17  20  1
        39  17  23  1
        40  17  41  1
        41  18  23  1
        42  18  42  1
        43  18  43  1
        44  18  44  1
        45  19  25  1
        46  19  45  1
        47  19  46  1
        48  19  47  1
        49  20  21  1
        50  20  48  1
        51  20  49  1
        52  21  22  1
        53  21  50  1
        54  21  51  1
        55  23  52  1
@<TRIPOS>SUBSTRUCTURE
       1 LIG             1 RESIDUE    0 **** ROOT      0

