@<TRIPOS>MOLECULE
LIG
52 55
SMALL
USER_CHARGES
@<TRIPOS>ATOM
      1 C1         29.2921  116.2661   51.0263 AA             0 LIG     -0.151741
      2 C2         29.7598  115.4207   49.9945 AB             0 LIG     -0.151741
      3 C3         28.0257  116.8710   50.9218 AD             0 LIG     -0.220252
      4 C4         28.9591  115.1976   48.8500 AE             0 LIG     -0.194616
      5 C5         24.1052  114.5980   47.6399 AF             0 LIG     -0.194616
      6 C6         22.8605  114.5243   48.2942 AH             0 LIG     -0.194616
      7 C7         23.6265  116.1816   49.9212 AI             0 LIG     -0.276550
      8 C8         27.2027  116.6337   49.7972 AJ             0 LIG     0.084603
      9 C9         24.8653  116.2953   49.2500 AK             0 LIG     0.084603
     10 C10        27.6903  115.7913   48.7632 AN             0 LIG     0.112404
     11 C11        25.1036  115.4626   48.1274 AO             0 LIG     0.112404
     12 C12        22.6296  115.3045   49.4435 AP             0 LIG     0.163041
     13 C13        28.7864  118.6390   47.8832 AQ             0 LIG     -0.029878
     14 C14        29.2081  119.8907   47.1075 AV             0 LIG     -0.034345
     15 C15        27.3203  118.3075   47.5785 AW             0 LIG     -0.054555
     16 C16        28.2528  121.0715   47.3788 AX             0 LIG     0.011138
     17 C17        26.3752  119.4987   47.9048 AY             1 LIG     0.149935
     18 C18        25.9076  121.8545   47.1884 AZ             0 LIG     -0.244054
     19 C19        20.1682  113.7830   49.5203 BB             0 LIG     -0.160589
     20 C20        26.1354  119.7485   49.4351 BC             0 LIG     -0.033239
     21 C21        25.4656  118.5024   50.1002 BD             0 LIG     0.039575
     22 N1         25.8895  117.1479   49.7175 BF             0 LIG     -0.187004
     23 N2         26.8330  120.6869   47.1268 BG             1 LIG     -0.070769
     24 S1         26.6862  115.4578   47.3454 BH             0 LIG     -0.197900
     25 S2         21.0671  115.1713   50.2628 BJ             0 LIG     -0.258446
     26 H1         29.9073  116.4391   51.8962 BK             0 LIG     0.161610
     27 H2         30.7241  114.9442   50.0774 BL             0 LIG     0.161610
     28 H3         27.6952  117.4979   51.7349 BM             0 LIG     0.136076
     29 H4         29.3198  114.5675   48.0558 BN             0 LIG     0.176324
     30 H5         24.2997  113.9797   46.7753 BO             0 LIG     0.176324
     31 H6         22.0997  113.8524   47.9229 BP             0 LIG     0.176324
     32 H7         23.4500  116.7540   50.8144 BQ             0 LIG     0.140791
     33 H8         29.4263  117.7967   47.6108 BS             0 LIG     0.046381
     34 H9         28.9245  118.7909   48.9540 BT             0 LIG     0.046381
     35 H10        30.2287  120.1680   47.3824 BU             0 LIG     0.049941
     36 H11        29.2385  119.6702   46.0399 BV             0 LIG     0.049941
     37 H12        27.2318  118.0481   46.5212 BW             0 LIG     0.046927
     38 H13        27.0281  117.3951   48.0988 BX             0 LIG     0.046927
     39 H14        28.3755  121.4249   48.4000 BY             0 LIG     0.081886
     40 H15        28.5325  121.9025   46.7321 BZ             0 LIG     0.081886
     41 H16        25.4007  119.2134   47.5002 CB             0 LIG     0.038290
     42 H17        25.9072  122.3076   48.1764 CI             0 LIG     0.142123
     43 H18        24.8888  121.5541   46.9429 CJ             0 LIG     0.142123
     44 H19        26.2073  122.6156   46.4688 CK             0 LIG     0.142123
     45 H20        19.1358  113.7752   49.8690 CM             0 LIG     0.110774
     46 H21        20.6301  112.8358   49.7995 CN             0 LIG     0.110774
     47 H22        20.1623  113.8705   48.4332 CT             0 LIG     0.110774
     48 H23        27.0857  119.9973   49.9219 CW             0 LIG     0.042019
     49 H24        25.5057  120.6351   49.5608 DA             0 LIG     0.042019
     50 H25        25.6702  118.5369   51.1603 DB             0 LIG     0.082888
     51 H26        24.3907  118.6314   49.9777 DC             0 LIG     0.082888
     52 H27        26.8143  120.3961   46.1639 DD             0 LIG     0.271082
@<TRIPOS>BOND
        1  1  2  2
        2  1  3  1
        3  1  26  1
        4  2  4  1
        5  2  27  1
        6  3  8  2
        7  3  28  1
        8  4  10  2
        9  4  29  1
        10  5  6  1
        11  5  11  2
        12  5  30  1
        13  6  12  2
        14  6  31  1
        15  7  9  2
        16  7  12  1
        17  7  32  1
        18  8  10  1
        19  8  22  1
        20  9  11  1
        21  9  22  1
        22  10  24  1
        23  11  24  1
        24  12  25  1
        25  13  14  1
        26  13  15  1
        27  13  33  1
        28  13  34  1
        29  14  16  1
        30  14  35  1
        31  14  36  1
        32  15  17  1
        33  15  37  1
        34  15  38  1
        35  16  23  1
        36  16  39  1
        37  16  40  1
        38  17  20  1
        39  17  23  1
        40  17  41  1
        41  18  23  1
        42  18  42  1
        43  18  43  1
        44  18  44  1
        45  19  25  1
        46  19  45  1
        47  19  46  1
        48  19  47  1
        49  20  21  1
        50  20  48  1
        51  20  49  1
        52  21  22  1
        53  21  50  1
        54  21  51  1
        55  23  52  1
@<TRIPOS>SUBSTRUCTURE
       1 LIG             1 RESIDUE    0 **** ROOT      0

