TDZNR1apsR
                    3D
 Schrodinger Suite 2019-4.
 52 55  0  0  1  0            999 V2000
   29.3375  116.4024   50.9699 C   0  0  0  0  0  0
   29.8155  115.5757   49.9359 C   0  0  0  0  0  0
   28.0504  116.9700   50.8815 C   0  0  0  0  0  0
   29.0091  115.3141   48.8154 C   0  0  0  0  0  0
   24.0929  114.6151   47.6307 C   0  0  0  0  0  0
   22.8545  114.5393   48.2889 C   0  0  0  0  0  0
   23.6300  116.1742   49.9239 C   0  0  0  0  0  0
   27.2186  116.6940   49.7708 C   0  0  0  0  0  0
   24.8639  116.2920   49.2485 C   0  0  0  0  0  0
   27.7138  115.8635   48.7324 C   0  0  0  0  0  0
   25.1004  115.4716   48.1196 C   0  0  0  0  0  0
   22.6302  115.3077   49.4469 C   0  0  0  0  0  0
   29.1713  119.0406   46.8856 C   0  0  0  0  0  0
   28.7419  120.1776   45.9555 C   0  0  0  0  0  0
   28.5755  119.2512   48.2833 C   0  0  0  0  0  0
   27.2118  120.2949   45.9237 C   0  0  0  0  0  0
   27.0344  119.3985   48.2447 C   0  0  1  0  0  0
   25.1891  120.7703   47.2256 C   0  0  0  0  0  0
   20.2492  113.6914   49.6388 C   0  0  0  0  0  0
   26.4347  119.6373   49.6594 C   0  0  0  0  0  0
   25.6022  118.4771   50.2686 C   0  0  0  0  0  0
   25.8839  117.1432   49.7154 N   0  0  0  0  0  0
   26.6474  120.4908   47.2881 N   0  3  2  0  0  0
   26.6909  115.4592   47.3443 S   0  0  0  0  0  0
   21.0926  115.1580   50.3011 S   0  0  0  0  0  0
   29.9442  116.5719   51.8472 H   0  0  0  0  0  0
   30.7892  115.1131   50.0218 H   0  0  0  0  0  0
   27.6937  117.5652   51.7079 H   0  0  0  0  0  0
   29.3625  114.6569   48.0375 H   0  0  0  0  0  0
   24.2931  113.9888   46.7748 H   0  0  0  0  0  0
   22.0977  113.8509   47.9377 H   0  0  0  0  0  0
   23.4713  116.7270   50.8358 H   0  0  0  0  0  0
   28.8436  118.0818   46.4788 H   0  0  0  0  0  0
   30.2604  118.9886   46.9420 H   0  0  0  0  0  0
   29.1932  121.1159   46.2846 H   0  0  0  0  0  0
   29.1227  119.9985   44.9474 H   0  0  0  0  0  0
   28.8611  118.3989   48.9025 H   0  0  0  0  0  0
   29.0301  120.1277   48.7475 H   0  0  0  0  0  0
   26.9404  121.1361   45.2843 H   0  0  0  0  0  0
   26.7799  119.4028   45.4675 H   0  0  0  0  0  0
   26.6264  118.4573   47.8679 H   0  0  0  0  0  0
   24.6263  119.8816   46.9376 H   0  0  0  0  0  0
   24.9758  121.5533   46.4964 H   0  0  0  0  0  0
   24.8000  121.1302   48.1785 H   0  0  0  0  0  0
   19.2089  113.6765   49.9656 H   0  0  0  0  0  0
   20.7300  112.7797   49.9933 H   0  0  0  0  0  0
   20.2640  113.6958   48.5477 H   0  0  0  0  0  0
   27.2577  119.8709   50.3305 H   0  0  0  0  0  0
   25.8008  120.5278   49.6248 H   0  0  0  0  0  0
   25.8256  118.4263   51.3373 H   0  0  0  0  0  0
   24.5359  118.6829   50.1761 H   0  0  0  0  0  0
   27.0786  121.3340   47.6433 H   0  0  0  0  0  0
  1  2  2  0  0  0
  1  3  1  0  0  0
  1 26  1  0  0  0
  2  4  1  0  0  0
  2 27  1  0  0  0
  3  8  2  0  0  0
  3 28  1  0  0  0
  4 10  2  0  0  0
  4 29  1  0  0  0
  5  6  2  0  0  0
  5 11  1  0  0  0
  5 30  1  0  0  0
  6 12  1  0  0  0
  6 31  1  0  0  0
  7  9  1  0  0  0
  7 12  2  0  0  0
  7 32  1  0  0  0
  8 10  1  0  0  0
  8 22  1  0  0  0
  9 11  2  0  0  0
  9 22  1  0  0  0
 10 24  1  0  0  0
 11 24  1  0  0  0
 12 25  1  0  0  0
 13 14  1  0  0  0
 13 15  1  0  0  0
 13 33  1  0  0  0
 13 34  1  0  0  0
 14 16  1  0  0  0
 14 35  1  0  0  0
 14 36  1  0  0  0
 15 17  1  0  0  0
 15 37  1  0  0  0
 15 38  1  0  0  0
 16 23  1  0  0  0
 16 39  1  0  0  0
 16 40  1  0  0  0
 17 20  1  0  0  0
 17 23  1  0  0  0
 17 41  1  0  0  0
 18 23  1  0  0  0
 18 42  1  0  0  0
 18 43  1  0  0  0
 18 44  1  0  0  0
 19 25  1  0  0  0
 19 45  1  0  0  0
 19 46  1  0  0  0
 19 47  1  0  0  0
 20 21  1  0  0  0
 20 48  1  0  0  0
 20 49  1  0  0  0
 21 22  1  0  0  0
 21 50  1  0  0  0
 21 51  1  0  0  0
 23 52  1  0  0  0
M  CHG  1  23   1
M  END
> <i_m_stars>
0

> <s_m_entry_id>
616

> <s_m_Source_Path>
/home/emilio/Dropbox/SAMPL9-eglab/mCD/ligsdfs

> <s_m_Source_File>
TDZNR1apsR.sdf

> <i_m_Source_File_Index>
1

> <r_epik_Ionization_Penalty>
  0.0017

> <r_epik_State_Penalty>
  0.0011

> <i_epik_Tot_Q>
1

> <s_m_job_name>
ligprep_4

> <i_f3d_flags>
0

$$$$
