@<TRIPOS>MOLECULE
LIG
50 53
SMALL
USER_CHARGES
@<TRIPOS>ATOM
      1 C1         29.2087  116.1184   51.1026 AA             0 LIG     -0.148793
      2 C2         29.6934  115.2996   50.0645 AB             0 LIG     -0.148793
      3 C3         27.9660  116.7642   50.9742 AD             0 LIG     -0.214109
      4 C4         28.9323  115.1385   48.8918 AE             0 LIG     -0.192215
      5 C5         24.1286  114.5629   47.6682 AF             0 LIG     -0.192215
      6 C6         22.8969  114.4679   48.3397 AH             0 LIG     -0.190417
      7 C7         23.5917  116.2538   49.8520 AI             0 LIG     -0.264320
      8 C8         27.1826  116.5974   49.8154 AJ             0 LIG     0.095370
      9 C9         24.8504  116.3302   49.2164 AK             0 LIG     0.095370
     10 C10        27.6761  115.7648   48.7782 AN             0 LIG     0.116137
     11 C11        25.1076  115.4654   48.1219 AO             0 LIG     0.116137
     12 C12        22.6282  115.3053   49.4453 AP             0 LIG     -0.071581
     13 C13        26.2785  119.9992   45.7198 AQ             0 LIG     0.037365
     14 C14        27.9066  120.8896   47.2400 AV             0 LIG     0.037365
     15 C15        26.3887  121.2507   44.8248 AW             0 LIG     0.086222
     16 C16        28.0516  122.1583   46.3729 AX             0 LIG     0.086222
     17 C17        26.1234  119.6311   49.4761 AY             0 LIG     0.011333
     18 C18        25.6089  118.4561   50.3272 AZ             0 LIG     0.026484
     19 C19        26.3062  119.2278   48.0006 BB             0 LIG     0.037611
     20 N1         25.8883  117.1454   49.7154 BC             0 LIG     -0.178062
     21 N2         26.5417  120.3733   47.1135 BD             0 LIG     -0.528710
     22 N3         27.7311  121.8580   44.9592 BF             0 LIG     -0.527743
     23 F1         21.6075  115.0829   51.5346 BG             0 LIG     -0.255693
     24 F2         20.6453  114.0842   49.8757 BH             0 LIG     -0.255693
     25 F3         20.5788  116.2457   50.0258 BJ             0 LIG     -0.255693
     26 S1         26.6884  115.4594   47.3459 BK             0 LIG     -0.174420
     27 C20        21.3346  115.1690   50.2322 BL             0 LIG     0.695255
     28 H1         29.7799  116.2379   52.0114 BM             0 LIG     0.167075
     29 H2         30.6348  114.7841   50.1707 BN             0 LIG     0.167075
     30 H3         27.6045  117.3571   51.7990 BO             0 LIG     0.157041
     31 H4         29.2919  114.5118   48.0892 BP             0 LIG     0.180382
     32 H5         24.3467  113.9127   46.8373 BQ             0 LIG     0.180382
     33 H6         22.1770  113.7258   48.0220 BS             0 LIG     0.183084
     34 H7         23.3715  116.8718   50.7095 BT             0 LIG     0.171935
     35 H8         25.2700  119.5897   45.6259 BU             0 LIG     0.086347
     36 H9         26.9667  119.2160   45.3947 BV             0 LIG     0.086347
     37 H10        28.6317  120.1266   46.9489 BW             0 LIG     0.086347
     38 H11        28.1178  121.1466   48.2789 BX             0 LIG     0.086347
     39 H12        26.2107  120.9871   43.7796 BY             0 LIG     0.119217
     40 H13        25.6255  121.9815   45.1006 BZ             0 LIG     0.119217
     41 H14        27.3875  122.9442   46.7386 CB             0 LIG     0.119217
     42 H15        29.0691  122.5479   46.4376 CI             0 LIG     0.119217
     43 H16        25.4021  120.4445   49.5350 CJ             0 LIG     0.035265
     44 H17        27.0534  120.0068   49.9018 CK             0 LIG     0.035265
     45 H18        26.1105  118.5352   51.2900 CM             0 LIG     0.085093
     46 H19        24.5454  118.5620   50.5534 CN             0 LIG     0.085093
     47 H20        27.0907  118.4747   47.9028 CT             0 LIG     0.068063
     48 H21        25.3810  118.7444   47.6858 CW             0 LIG     0.068063
     49 H22        28.4150  121.2057   44.6018 DA             0 LIG     0.375757
     50 H23        27.7684  122.7099   44.4174 DB             0 LIG     0.375757
@<TRIPOS>BOND
        1  1  2  2
        2  1  3  1
        3  1  28  1
        4  2  4  1
        5  2  29  1
        6  3  8  2
        7  3  30  1
        8  4  10  2
        9  4  31  1
        10  5  6  1
        11  5  11  2
        12  5  32  1
        13  6  12  2
        14  6  33  1
        15  7  9  2
        16  7  12  1
        17  7  34  1
        18  8  10  1
        19  8  20  1
        20  9  11  1
        21  9  20  1
        22  10  26  1
        23  11  26  1
        24  12  27  1
        25  13  15  1
        26  13  21  1
        27  13  35  1
        28  13  36  1
        29  14  16  1
        30  14  21  1
        31  14  37  1
        32  14  38  1
        33  15  22  1
        34  15  39  1
        35  15  40  1
        36  16  22  1
        37  16  41  1
        38  16  42  1
        39  17  18  1
        40  17  19  1
        41  17  43  1
        42  17  44  1
        43  18  20  1
        44  18  45  1
        45  18  46  1
        46  19  21  1
        47  19  47  1
        48  19  48  1
        49  22  49  1
        50  22  50  1
        51  23  27  1
        52  24  27  1
        53  25  27  1
@<TRIPOS>SUBSTRUCTURE
       1 LIG             1 RESIDUE    0 **** ROOT      0

