@<TRIPOS>MOLECULE
LIG
50 53
SMALL
USER_CHARGES
@<TRIPOS>ATOM
      1 C1         29.4790  116.6090   50.7065 AA             0 LIG     -0.146946
      2 C2         29.8904  115.7243   49.7175 AB             0 LIG     -0.146946
      3 C3         28.1774  117.1071   50.6986 AD             0 LIG     -0.213882
      4 C4         29.0036  115.3564   48.7116 AE             0 LIG     -0.189563
      5 C5         24.2106  114.4330   47.8201 AF             0 LIG     -0.189563
      6 C6         22.9590  114.3910   48.4231 AH             0 LIG     -0.186283
      7 C7         23.5999  116.2313   49.8379 AI             0 LIG     -0.267664
      8 C8         27.2445  116.7382   49.7058 AJ             0 LIG     0.094519
      9 C9         24.8877  116.2854   49.2661 AK             0 LIG     0.094519
     10 C10        27.7018  115.8629   48.6944 AN             0 LIG     0.116195
     11 C11        25.1600  115.3734   48.2223 AO             0 LIG     0.116195
     12 C12        22.6385  115.2992   49.4326 AP             0 LIG     -0.069395
     13 C13        27.0708  120.1191   45.6335 AQ             0 LIG     -0.041121
     14 C14        28.0871  121.3368   47.4739 AV             0 LIG     -0.041121
     15 C15        27.3752  121.3044   44.6914 AW             0 LIG     0.063286
     16 C16        28.3878  122.5073   46.5161 AX             0 LIG     0.063286
     17 C17        25.9909  119.8822   49.3626 AY             0 LIG     -0.016690
     18 C18        25.5520  118.5340   50.0783 AZ             0 LIG     0.028631
     19 C19        26.5535  119.4536   47.9560 BB             0 LIG     -0.059139
     20 N1         25.8935  117.1650   49.7343 BC             0 LIG     -0.187888
     21 N2         26.9065  120.5623   47.0372 BD             0 LIG     -0.035261
     22 N3         28.5492  122.0440   45.1418 BF             0 LIG     -0.795699
     23 F1         20.6815  116.4799   49.9397 BG             0 LIG     -0.251326
     24 F2         21.4071  115.0618   51.4076 BH             0 LIG     -0.251326
     25 F3         20.4544  114.3577   49.5997 BJ             0 LIG     -0.251326
     26 S1         26.6727  115.4452   47.3386 BK             0 LIG     -0.162784
     27 C20        21.2651  115.2918   50.1017 BL             0 LIG     0.697269
     28 H1         30.1666  116.9059   51.4846 BM             0 LIG     0.171877
     29 H2         30.8976  115.3345   49.7219 BN             0 LIG     0.171877
     30 H3         27.9178  117.7814   51.4989 BO             0 LIG     0.150837
     31 H4         29.3383  114.6891   47.9307 BP             0 LIG     0.186066
     32 H5         24.4347  113.7424   47.0203 BQ             0 LIG     0.186066
     33 H6         22.2403  113.6577   48.0877 BS             0 LIG     0.189607
     34 H7         23.3075  116.9128   50.6183 BT             0 LIG     0.149674
     35 H8         26.1610  119.6369   45.2824 BU             0 LIG     0.093433
     36 H9         27.8508  119.3649   45.5655 BV             0 LIG     0.093433
     37 H10        28.9465  120.6815   47.5702 BW             0 LIG     0.093433
     38 H11        27.9187  121.7548   48.4594 BX             0 LIG     0.093433
     39 H12        27.5452  120.9705   43.6655 BY             0 LIG     0.105981
     40 H13        26.5213  121.9791   44.6456 BZ             0 LIG     0.105981
     41 H14        27.5849  123.2416   46.5551 CB             0 LIG     0.105981
     42 H15        29.2919  123.0421   46.8146 CI             0 LIG     0.105981
     43 H16        25.1042  120.4864   49.1398 CJ             0 LIG     0.044237
     44 H17        26.6967  120.5156   49.8907 CK             0 LIG     0.044237
     45 H18        25.9516  118.6320   51.0942 CM             0 LIG     0.093748
     46 H19        24.4546  118.4591   50.0766 CN             0 LIG     0.093748
     47 H20        27.4190  118.8096   48.0562 CT             0 LIG     0.094892
     48 H21        25.8161  118.8293   47.4635 CW             0 LIG     0.094892
     49 H22        29.4444  121.6081   44.9335 DA             0 LIG     0.419755
     50 H23        26.1268  121.2073   47.0206 DB             0 LIG     0.340852
@<TRIPOS>BOND
        1  1  2  2
        2  1  3  1
        3  1  28  1
        4  2  4  1
        5  2  29  1
        6  3  8  2
        7  3  30  1
        8  4  10  2
        9  4  31  1
        10  5  6  1
        11  5  11  2
        12  5  32  1
        13  6  12  2
        14  6  33  1
        15  7  9  2
        16  7  12  1
        17  7  34  1
        18  8  10  1
        19  8  20  1
        20  9  11  1
        21  9  20  1
        22  10  26  1
        23  11  26  1
        24  12  27  1
        25  13  15  1
        26  13  21  1
        27  13  35  1
        28  13  36  1
        29  14  16  1
        30  14  21  1
        31  14  37  1
        32  14  38  1
        33  15  22  1
        34  15  39  1
        35  15  40  1
        36  16  22  1
        37  16  41  1
        38  16  42  1
        39  17  18  1
        40  17  19  1
        41  17  43  1
        42  17  44  1
        43  18  20  1
        44  18  45  1
        45  18  46  1
        46  19  21  1
        47  19  47  1
        48  19  48  1
        49  21  50  1
        50  22  49  1
        51  23  27  1
        52  24  27  1
        53  25  27  1
@<TRIPOS>SUBSTRUCTURE
       1 LIG             1 RESIDUE    0 **** ROOT      0

