@<TRIPOS>MOLECULE
LIG
22 22
SMALL
USER_CHARGES
@<TRIPOS>ATOM
      1 C1          24.9910   109.0240    38.8740 AA            1 LIG       -0.037430
      2 C2          26.5590   108.6140    40.8210 AB            1 LIG       -0.037430
      3 C3          25.7200   110.3430    38.5640 AD            1 LIG       -0.014613
      4 C4          27.2880   109.9320    40.5140 AE            1 LIG       -0.014613
      5 C5          25.9270   108.0040    39.5530 AF            1 LIG        0.127914
      6 C6          26.3460   110.9410    39.8360 AH            1 LIG        0.201895
      7 C7          25.1940   106.6920    39.8670 AI            1 LIG       -0.327270
      8 O1          27.0630   112.1110    39.5050 AJ            1 LIG       -0.743696
      9 H1          24.1350   109.2260    39.5190 AK            1 LIG        0.012667
     10 H2          24.5890   108.6050    37.9510 AN            1 LIG        0.012667
     11 H3          27.2580   107.9050    41.2670 AO            1 LIG        0.012667
     12 H4          25.7850   108.7940    41.5690 AP            1 LIG        0.012667
     13 H5          26.4950   110.1610    37.8190 AQ            1 LIG        0.012381
     14 H6          25.0220   111.0540    38.1200 AV            1 LIG        0.012381
     15 H7          27.6910   110.3540    41.4350 AW            1 LIG        0.012381
     16 H8          28.1430   109.7290    39.8660 AX            1 LIG        0.012381
     17 H9          26.7330   107.7710    38.8560 AY            1 LIG        0.001826
     18 H10         25.5540   111.2200    40.5320 AZ            1 LIG        0.048860
     19 H11         24.3710   106.8540    40.5630 BB            1 LIG        0.080616
     20 H12         25.8690   105.9620    40.3130 BC            1 LIG        0.080616
     21 H13         24.7810   106.2470    38.9610 BD            1 LIG        0.080616
     22 H14         27.7530   111.8800    38.9010 BF            1 LIG        0.452517
@<TRIPOS>BOND
        1  1  3  1
        2  1  5  1
        3  1  9  1
        4  1  10  1
        5  2  4  1
        6  2  5  1
        7  2  11  1
        8  2  12  1
        9  3  6  1
        10  3  13  1
        11  3  14  1
        12  4  6  1
        13  4  15  1
        14  4  16  1
        15  5  7  1
        16  5  17  1
        17  6  8  1
        18  6  18  1
        19  7  19  1
        20  7  20  1
        21  7  21  1
        22  8  22  1
@<TRIPOS>SUBSTRUCTURE
       1 LIG             1 RESIDUE    0 **** ROOT      0
