@<TRIPOS>MOLECULE
LIG
22 22
SMALL
USER_CHARGES
@<TRIPOS>ATOM
      1 C1           -0.544     -0.715     -1.267 aa            1 LIG       -0.037430
      2 C2           -0.544     -0.715      1.267 ab            1 LIG       -0.037430
      3 C3           -2.080     -0.780     -1.268 ad            1 LIG       -0.014613
      4 C4           -2.080     -0.780      1.268 ae            1 LIG       -0.014613
      5 C5           -0.005     -0.021      0.000 af            1 LIG        0.127914
      6 C6           -2.606     -1.474      0.000 ah            1 LIG        0.201895
      7 C7            1.529      0.035     -0.000 ai            1 LIG       -0.327270
      8 O1           -4.018     -1.454     -0.000 aj            1 LIG       -0.743696
      9 H1           -0.140     -1.726     -1.333 ak            1 LIG        0.012667
     10 H2           -0.201     -0.187     -2.157 an            1 LIG        0.012667
     11 H3           -0.201     -0.187      2.157 ao            1 LIG        0.012667
     12 H4           -0.140     -1.726      1.333 ap            1 LIG        0.012667
     13 H5           -2.484      0.232     -1.332 aq            1 LIG        0.012381
     14 H6           -2.427     -1.309     -2.156 av            1 LIG        0.012381
     15 H7           -2.427     -1.309      2.156 aw            1 LIG        0.012381
     16 H8           -2.484      0.232      1.332 ax            1 LIG        0.012381
     17 H9           -0.370      1.007     -0.000 ay            1 LIG        0.001826
     18 H10          -2.287     -2.517      0.000 az            1 LIG        0.048860
     19 H11           1.962     -0.966      0.000 bb            1 LIG        0.080616
     20 H12           1.903      0.559      0.880 bc            1 LIG        0.080616
     21 H13           1.903      0.559     -0.880 bd            1 LIG        0.080616
     22 H14          -4.306     -0.554      0.000 bf            1 LIG        0.452517
@<TRIPOS>BOND
        1  1  3  1
        2  1  5  1
        3  1  9  1
        4  1  10  1
        5  2  4  1
        6  2  5  1
        7  2  11  1
        8  2  12  1
        9  3  6  1
        10  3  13  1
        11  3  14  1
        12  4  6  1
        13  4  15  1
        14  4  16  1
        15  5  7  1
        16  5  17  1
        17  6  8  1
        18  6  18  1
        19  7  19  1
        20  7  20  1
        21  7  21  1
        22  8  22  1
@<TRIPOS>SUBSTRUCTURE
       1 LIG             1 RESIDUE    0 **** ROOT      0
