@<TRIPOS>MOLECULE
g1sm
22   22    1
SMALL
USER_CHARGES


@<TRIPOS>ATOM
      1 C1         16.0059    0.2350    1.0796 C.3       1 UNK        -0.1200 
      2 C2         14.2203    1.8676    0.3288 C.3       1 UNK        -0.1200 
      3 C3         15.0768   -0.9411    0.7353 C.3       1 UNK        -0.1200 
      4 C4         13.2896    0.6932   -0.0159 C.3       1 UNK        -0.1200 
      5 C5         15.7052    1.4707    0.2079 C.3       1 UNK        -0.0600 
      6 C6         13.5989   -0.5332    0.8593 C.3       1 UNK         0.2050 
      7 C7         16.6306    2.6444    0.5599 C.3       1 UNK        -0.1800 
      8 O8         12.7757   -1.6124    0.4702 O.3       1 UNK        -0.6830 
      9 H9         15.8906    0.4907    2.1338 H         1 UNK         0.0600 
     10 H10        17.0445   -0.0708    0.9488 H         1 UNK         0.0600 
     11 H11        14.0040    2.7097   -0.3297 H         1 UNK         0.0600 
     12 H12        14.0116    2.2090    1.3438 H         1 UNK         0.0600 
     13 H13        15.2847   -1.2802   -0.2805 H         1 UNK         0.0600 
     14 H14        15.2899   -1.7841    1.3938 H         1 UNK         0.0600 
     15 H15        12.2500    0.9956    0.1156 H         1 UNK         0.0600 
     16 H16        13.4071    0.4366   -1.0699 H         1 UNK         0.0600 
     17 H17        15.8972    1.2024   -0.8321 H         1 UNK         0.0600 
     18 H18        13.3741   -0.3002    1.9008 H         1 UNK         0.0600 
     19 H19        16.4895    2.9649    1.5925 H         1 UNK         0.0600 
     20 H20        16.4385    3.5030   -0.0842 H         1 UNK         0.0600 
     21 H21        17.6784    2.3692    0.4371 H         1 UNK         0.0600 
     22 H22        12.9622   -1.8231   -0.4319 H         1 UNK         0.4180 
@<TRIPOS>BOND
     1    1    3 1    
     2    1    5 1    
     3    1    9 1    
     4    1   10 1    
     5    2    4 1    
     6    2    5 1    
     7    2   11 1    
     8    2   12 1    
     9    3    6 1    
    10    3   13 1    
    11    3   14 1    
    12    4    6 1    
    13    4   15 1    
    14    4   16 1    
    15    5    7 1    
    16    5   17 1    
    17    6    8 1    
    18    6   18 1    
    19    7   19 1    
    20    7   20 1    
    21    7   21 1    
    22    8   22 1    
@<TRIPOS>SUBSTRUCTURE
     1 UNK         1 GROUP             0       ****    0 ROOT    
