PHM0assR
                    3D
 Schrodinger Suite 2019-4.
 26 28  0  0  1  0            999 V2000
   24.0493  108.9909   40.4064 C   0  0  0  0  0  0
   21.2641  103.1424   40.3806 C   0  0  0  0  0  0
   25.2287  108.5956   39.7878 C   0  0  0  0  0  0
   22.3216  102.4825   39.7671 C   0  0  0  0  0  0
   22.8611  108.3129   40.1408 C   0  0  0  0  0  0
   21.0410  104.4931   40.1212 C   0  0  0  0  0  0
   25.2193  107.5082   38.9219 C   0  0  0  0  0  0
   23.1645  103.1819   38.9108 C   0  0  0  0  0  0
   22.8107  107.2209   39.2494 C   0  0  0  0  0  0
   21.8644  105.2287   39.2418 C   0  0  0  0  0  0
   24.0324  106.8181   38.6639 C   0  0  0  0  0  0
   22.9508  104.5391   38.6581 C   0  0  0  0  0  0
   20.2521  107.1702   38.7373 C   0  0  0  0  0  0
   21.5970  106.5785   38.9010 N   0  0  0  0  0  0
   24.1166  105.3842   37.6578 S   0  0  0  0  0  0
   24.0532  109.8266   41.0907 H   0  0  0  0  0  0
   20.6114  102.6065   41.0539 H   0  0  0  0  0  0
   26.1510  109.1199   39.9905 H   0  0  0  0  0  0
   22.4960  101.4349   39.9640 H   0  0  0  0  0  0
   21.9848  108.6706   40.6533 H   0  0  0  0  0  0
   20.1985  104.9440   40.6206 H   0  0  0  0  0  0
   26.1454  107.1879   38.4663 H   0  0  0  0  0  0
   24.0004  102.6688   38.4572 H   0  0  0  0  0  0
   19.7738  106.7300   37.8611 H   0  0  0  0  0  0
   20.3486  108.2163   38.4419 H   0  0  0  0  0  0
   19.6442  107.0546   39.6346 H   0  0  0  0  0  0
  1  3  2  0  0  0
  1  5  1  0  0  0
  1 16  1  0  0  0
  2  4  2  0  0  0
  2  6  1  0  0  0
  2 17  1  0  0  0
  3  7  1  0  0  0
  3 18  1  0  0  0
  4  8  1  0  0  0
  4 19  1  0  0  0
  5  9  2  0  0  0
  5 20  1  0  0  0
  6 10  2  0  0  0
  6 21  1  0  0  0
  7 11  2  0  0  0
  7 22  1  0  0  0
  8 12  2  0  0  0
  8 23  1  0  0  0
  9 11  1  0  0  0
  9 14  1  0  0  0
 10 12  1  0  0  0
 10 14  1  0  0  0
 11 15  1  0  0  0
 12 15  1  0  0  0
 13 14  1  0  0  0
 13 24  1  0  0  0
 13 25  1  0  0  0
 13 26  1  0  0  0
M  END
> <s_m_entry_id>
202

> <s_m_Source_Path>
/nfs/egallicchio/Dropbox/sims/SAMPL9

> <s_m_Source_File>
PMZ.mol2

> <i_m_Source_File_Index>
1

> <r_epik_Ionization_Penalty>
  0.0034

> <r_epik_State_Penalty>
  0.0024

> <i_epik_Tot_Q>
1

> <i_f3d_flags>
0

> <s_m_job_name>
ligprep_4

$$$$
