@<TRIPOS>MOLECULE
LIG
26 28
SMALL
USER_CHARGES
@<TRIPOS>ATOM
      1 C1         28.0620  110.8939   39.7598 TA             0 LIG     -0.154775
      2 C2         31.5105  114.8613   43.3139 TB             0 LIG     -0.154775
      3 C3         26.8771  111.0497   40.4682 TD             0 LIG     -0.154775
      4 C4         30.4874  115.1964   44.1922 TE             0 LIG     -0.154775
      5 C5         28.9672  111.9500   39.6737 TF             0 LIG     -0.216337
      6 C6         31.2156  114.5401   41.9905 TH             0 LIG     -0.216337
      7 C7         26.6121  112.2555   41.1070 TI             0 LIG     -0.195515
      8 C8         29.1701  115.1898   43.7477 TJ             0 LIG     -0.195515
      9 C9         28.7193  113.1947   40.2892 TK             0 LIG     0.088793
     10 C10        29.8919  114.5433   41.5004 TN             0 LIG     0.088793
     11 C11        27.5236  113.3116   41.0336 TO             0 LIG     0.114550
     12 C12        28.8700  114.8564   42.4247 TP             0 LIG     0.114550
     13 C13        30.3751  114.7432   38.9661 TQ             0 LIG     -0.109988
     14 N1         29.5860  114.3049   40.1369 TV             0 LIG     -0.133727
     15 S1         27.1816  114.7593   41.9624 TW             0 LIG     -0.244806
     16 H1         28.2797  109.9547   39.2728 TX             0 LIG     0.151374
     17 H2         32.5350  114.8558   43.6559 TY             0 LIG     0.151374
     18 H3         26.1729  110.2335   40.5356 TZ             0 LIG     0.151374
     19 H4         30.7126  115.4482   45.2181 UB             0 LIG     0.151374
     20 H5         29.8648  111.7621   39.1101 UC             0 LIG     0.152365
     21 H6         32.0546  114.2992   41.3578 UD             0 LIG     0.152365
     22 H7         25.7021  112.3604   41.6802 UF             0 LIG     0.161016
     23 H8         28.3771  115.4261   44.4427 UG             0 LIG     0.161016
     24 H9         31.3911  114.9760   39.2884 UH             0 LIG     0.097461
     25 H10        30.0152  115.7167   38.6288 UJ             0 LIG     0.097461
     26 H11        30.3610  114.0038   38.1654 UK             0 LIG     0.097461
@<TRIPOS>BOND
        1  1  3  2
        2  1  5  1
        3  1  16  1
        4  2  4  2
        5  2  6  1
        6  2  17  1
        7  3  7  1
        8  3  18  1
        9  4  8  1
        10  4  19  1
        11  5  9  2
        12  5  20  1
        13  6  10  2
        14  6  21  1
        15  7  11  2
        16  7  22  1
        17  8  12  2
        18  8  23  1
        19  9  11  1
        20  9  14  1
        21  10  12  1
        22  10  14  1
        23  11  15  1
        24  12  15  1
        25  13  14  1
        26  13  24  1
        27  13  25  1
        28  13  26  1
@<TRIPOS>SUBSTRUCTURE
       1 LIG             1 RESIDUE    0 **** ROOT      0
