PHM0apsS
                    3D
 Schrodinger Suite 2019-4.
 26 28  0  0  1  0            999 V2000
   31.5080  116.0955   38.4494 C   0  0  0  0  0  0
   26.7213  112.4299   40.3754 C   0  0  0  0  0  0
   32.3545  114.9947   38.4075 C   0  0  0  0  0  0
   27.5430  111.3098   40.3508 C   0  0  0  0  0  0
   30.4876  116.1551   39.3968 C   0  0  0  0  0  0
   27.2530  113.6774   40.6952 C   0  0  0  0  0  0
   32.1907  113.9667   39.3288 C   0  0  0  0  0  0
   28.8909  111.4390   40.6657 C   0  0  0  0  0  0
   30.2779  115.1191   40.3307 C   0  0  0  0  0  0
   28.6207  113.8483   41.0000 C   0  0  0  0  0  0
   31.1773  114.0297   40.2881 C   0  0  0  0  0  0
   29.4247  112.6863   40.9987 C   0  0  0  0  0  0
   28.4462  116.3021   41.7299 C   0  0  0  0  0  0
   29.1919  115.1232   41.2406 N   0  0  0  0  0  0
   31.1052  112.7577   41.4932 S   0  0  0  0  0  0
   31.6390  116.9037   37.7449 H   0  0  0  0  0  0
   25.6714  112.3341   40.1406 H   0  0  0  0  0  0
   33.1453  114.9449   37.6736 H   0  0  0  0  0  0
   27.1346  110.3416   40.1010 H   0  0  0  0  0  0
   29.8687  117.0354   39.3742 H   0  0  0  0  0  0
   26.5653  114.5077   40.6869 H   0  0  0  0  0  0
   32.8705  113.1269   39.3091 H   0  0  0  0  0  0
   29.5189  110.5596   40.6699 H   0  0  0  0  0  0
   28.5244  117.1036   40.9938 H   0  0  0  0  0  0
   28.9663  116.7307   42.5883 H   0  0  0  0  0  0
   27.4087  116.0609   41.9610 H   0  0  0  0  0  0
  1  3  2  0  0  0
  1  5  1  0  0  0
  1 16  1  0  0  0
  2  4  2  0  0  0
  2  6  1  0  0  0
  2 17  1  0  0  0
  3  7  1  0  0  0
  3 18  1  0  0  0
  4  8  1  0  0  0
  4 19  1  0  0  0
  5  9  2  0  0  0
  5 20  1  0  0  0
  6 10  2  0  0  0
  6 21  1  0  0  0
  7 11  2  0  0  0
  7 22  1  0  0  0
  8 12  2  0  0  0
  8 23  1  0  0  0
  9 11  1  0  0  0
  9 14  1  0  0  0
 10 12  1  0  0  0
 10 14  1  0  0  0
 11 15  1  0  0  0
 12 15  1  0  0  0
 13 14  1  0  0  0
 13 24  1  0  0  0
 13 25  1  0  0  0
 13 26  1  0  0  0
M  END
> <s_m_entry_id>
200

> <s_m_Source_Path>
/nfs/egallicchio/Dropbox/sims/SAMPL9

> <s_m_Source_File>
PMZ.mol2

> <i_m_Source_File_Index>
1

> <r_epik_Ionization_Penalty>
  0.0034

> <r_epik_State_Penalty>
  0.0024

> <i_epik_Tot_Q>
1

> <i_f3d_flags>
0

> <s_m_job_name>
ligprep_4

$$$$
