@<TRIPOS>MOLECULE
LIG
26 28
SMALL
USER_CHARGES
@<TRIPOS>ATOM
      1 C1         27.7823  110.7868   40.2644 TA             0 LIG     -0.154775
      2 C2         29.4032  116.8916   39.8593 TB             0 LIG     -0.154775
      3 C3         26.7356  111.1056   41.1205 TD             0 LIG     -0.154775
      4 C4         28.3697  117.2434   40.7187 TE             0 LIG     -0.154775
      5 C5         28.9546  111.5401   40.2853 TF             0 LIG     -0.216337
      6 C6         30.0475  115.6653   40.0096 TH             0 LIG     -0.216337
      7 C7         26.8743  112.1641   42.0107 TI             0 LIG     -0.195515
      8 C8         27.9976  116.3748   41.7383 TJ             0 LIG     -0.195515
      9 C9         29.1199  112.6354   41.1586 TK             0 LIG     0.088793
     10 C10        29.6818  114.7507   41.0207 TN             0 LIG     0.088793
     11 C11        28.0532  112.9128   42.0434 TO             0 LIG     0.114550
     12 C12        28.6496  115.1498   41.8993 TP             0 LIG     0.114550
     13 C13        31.6121  113.1059   40.6297 TQ             0 LIG     -0.109988
     14 N1         30.2682  113.4647   41.1301 TV             0 LIG     -0.133727
     15 S1         28.2054  114.1543   43.2725 TW             0 LIG     -0.244806
     16 H1         27.6855  109.9568   39.5800 TX             0 LIG     0.151374
     17 H2         29.7028  117.5664   39.0710 TY             0 LIG     0.151374
     18 H3         25.8253  110.5245   41.1057 TZ             0 LIG     0.151374
     19 H4         27.8665  118.1922   40.6036 UB             0 LIG     0.151374
     20 H5         29.7253  111.2394   39.5967 UC             0 LIG     0.152365
     21 H6         30.8339  115.4479   39.3049 UD             0 LIG     0.152365
     22 H7         26.0675  112.3887   42.6938 UF             0 LIG     0.161016
     23 H8         27.2105  116.6659   42.4191 UG             0 LIG     0.161016
     24 H9         31.9877  113.9175   40.0047 UH             0 LIG     0.097461
     25 H10        31.5266  112.2879   39.9123 UJ             0 LIG     0.097461
     26 H11        32.2985  112.8656   41.4416 UK             0 LIG     0.097461
@<TRIPOS>BOND
        1  1  3  2
        2  1  5  1
        3  1  16  1
        4  2  4  2
        5  2  6  1
        6  2  17  1
        7  3  7  1
        8  3  18  1
        9  4  8  1
        10  4  19  1
        11  5  9  2
        12  5  20  1
        13  6  10  2
        14  6  21  1
        15  7  11  2
        16  7  22  1
        17  8  12  2
        18  8  23  1
        19  9  11  1
        20  9  14  1
        21  10  12  1
        22  10  14  1
        23  11  15  1
        24  12  15  1
        25  13  14  1
        26  13  24  1
        27  13  25  1
        28  13  26  1
@<TRIPOS>SUBSTRUCTURE
       1 LIG             1 RESIDUE    0 **** ROOT      0
