PHM0assS
                    3D
 Schrodinger Suite 2019-4.
 26 28  0  0  1  0            999 V2000
   24.3357  109.6168   39.7299 C   0  0  0  0  0  0
   22.3534  104.4936   36.5863 C   0  0  0  0  0  0
   25.5215  108.9735   40.0616 C   0  0  0  0  0  0
   23.5253  103.8194   36.9063 C   0  0  0  0  0  0
   23.1569  108.8844   39.6022 C   0  0  0  0  0  0
   21.8194  105.4236   37.4758 C   0  0  0  0  0  0
   25.5194  107.6017   40.2861 C   0  0  0  0  0  0
   24.1484  104.0641   38.1247 C   0  0  0  0  0  0
   23.1233  107.4881   39.7993 C   0  0  0  0  0  0
   22.4367  105.7116   38.7122 C   0  0  0  0  0  0
   24.3369  106.8668   40.1719 C   0  0  0  0  0  0
   23.6090  104.9870   39.0241 C   0  0  0  0  0  0
   20.5547  107.1932   39.6329 C   0  0  0  0  0  0
   21.9537  106.7176   39.5864 N   0  0  0  0  0  0
   24.3836  105.1636   40.5870 S   0  0  0  0  0  0
   24.3285  110.6847   39.5677 H   0  0  0  0  0  0
   21.8599  104.3009   35.6451 H   0  0  0  0  0  0
   26.4370  109.5382   40.1599 H   0  0  0  0  0  0
   23.9434  103.0995   36.2181 H   0  0  0  0  0  0
   22.2749  109.4444   39.3436 H   0  0  0  0  0  0
   20.9143  105.9196   37.1641 H   0  0  0  0  0  0
   26.4394  107.1120   40.5719 H   0  0  0  0  0  0
   25.0453  103.5174   38.3784 H   0  0  0  0  0  0
   20.2791  107.3878   40.6704 H   0  0  0  0  0  0
   19.8833  106.3742   39.3693 H   0  0  0  0  0  0
   20.4001  108.0667   38.9995 H   0  0  0  0  0  0
  1  3  2  0  0  0
  1  5  1  0  0  0
  1 16  1  0  0  0
  2  4  2  0  0  0
  2  6  1  0  0  0
  2 17  1  0  0  0
  3  7  1  0  0  0
  3 18  1  0  0  0
  4  8  1  0  0  0
  4 19  1  0  0  0
  5  9  2  0  0  0
  5 20  1  0  0  0
  6 10  2  0  0  0
  6 21  1  0  0  0
  7 11  2  0  0  0
  7 22  1  0  0  0
  8 12  2  0  0  0
  8 23  1  0  0  0
  9 11  1  0  0  0
  9 14  1  0  0  0
 10 12  1  0  0  0
 10 14  1  0  0  0
 11 15  1  0  0  0
 12 15  1  0  0  0
 13 14  1  0  0  0
 13 24  1  0  0  0
 13 25  1  0  0  0
 13 26  1  0  0  0
M  END
> <s_m_entry_id>
198

> <s_m_Source_Path>
/nfs/egallicchio/Dropbox/sims/SAMPL9

> <s_m_Source_File>
PMZ.mol2

> <i_m_Source_File_Index>
1

> <r_epik_Ionization_Penalty>
  0.0034

> <r_epik_State_Penalty>
  0.0024

> <i_epik_Tot_Q>
1

> <i_f3d_flags>
0

> <s_m_job_name>
ligprep_4

$$$$
