PHM0appR
                    3D
 Schrodinger Suite 2019-4.
 26 28  0  0  1  0            999 V2000
   28.0620  110.8939   39.7598 C   0  0  0  0  0  0
   31.5105  114.8613   43.3139 C   0  0  0  0  0  0
   26.8771  111.0497   40.4682 C   0  0  0  0  0  0
   30.4874  115.1964   44.1922 C   0  0  0  0  0  0
   28.9672  111.9500   39.6737 C   0  0  0  0  0  0
   31.2156  114.5401   41.9905 C   0  0  0  0  0  0
   26.6121  112.2555   41.1070 C   0  0  0  0  0  0
   29.1701  115.1898   43.7477 C   0  0  0  0  0  0
   28.7193  113.1947   40.2892 C   0  0  0  0  0  0
   29.8919  114.5433   41.5004 C   0  0  0  0  0  0
   27.5236  113.3116   41.0336 C   0  0  0  0  0  0
   28.8700  114.8564   42.4247 C   0  0  0  0  0  0
   30.3751  114.7432   38.9661 C   0  0  0  0  0  0
   29.5860  114.3049   40.1369 N   0  0  0  0  0  0
   27.1816  114.7593   41.9624 S   0  0  0  0  0  0
   28.2797  109.9547   39.2728 H   0  0  0  0  0  0
   32.5350  114.8558   43.6559 H   0  0  0  0  0  0
   26.1729  110.2335   40.5356 H   0  0  0  0  0  0
   30.7126  115.4482   45.2181 H   0  0  0  0  0  0
   29.8648  111.7621   39.1101 H   0  0  0  0  0  0
   32.0546  114.2992   41.3578 H   0  0  0  0  0  0
   25.7021  112.3604   41.6802 H   0  0  0  0  0  0
   28.3771  115.4261   44.4427 H   0  0  0  0  0  0
   31.3911  114.9760   39.2884 H   0  0  0  0  0  0
   30.0152  115.7167   38.6288 H   0  0  0  0  0  0
   30.3610  114.0038   38.1654 H   0  0  0  0  0  0
  1  3  2  0  0  0
  1  5  1  0  0  0
  1 16  1  0  0  0
  2  4  2  0  0  0
  2  6  1  0  0  0
  2 17  1  0  0  0
  3  7  1  0  0  0
  3 18  1  0  0  0
  4  8  1  0  0  0
  4 19  1  0  0  0
  5  9  2  0  0  0
  5 20  1  0  0  0
  6 10  2  0  0  0
  6 21  1  0  0  0
  7 11  2  0  0  0
  7 22  1  0  0  0
  8 12  2  0  0  0
  8 23  1  0  0  0
  9 11  1  0  0  0
  9 14  1  0  0  0
 10 12  1  0  0  0
 10 14  1  0  0  0
 11 15  1  0  0  0
 12 15  1  0  0  0
 13 14  1  0  0  0
 13 24  1  0  0  0
 13 25  1  0  0  0
 13 26  1  0  0  0
M  END
> <s_m_entry_id>
203

> <s_m_Source_Path>
/nfs/egallicchio/Dropbox/sims/SAMPL9

> <s_m_Source_File>
PMZ.mol2

> <i_m_Source_File_Index>
1

> <r_epik_Ionization_Penalty>
  0.0034

> <r_epik_State_Penalty>
  0.0024

> <i_epik_Tot_Q>
1

> <i_f3d_flags>
0

> <s_m_job_name>
ligprep_4

$$$$
