bCD
                    3D

147154  0  0  1  0            999 V2000
   26.1352  118.5135   45.5302  C    0  0  2  0  0  0
   24.7840  118.4612   46.3203  C    0  0  1  0  0  0
   23.7406  117.6823   45.4083  C    0  0  2  0  0  0
   23.6976  118.3361   43.9744  C    0  0  1  0  0  0
   25.1172  118.4239   43.3274  C    0  0  1  0  0  0
   25.1733  119.1347   41.9389  C    0  0  0  0  0  0
   29.2414  114.2594   46.9639  C    0  0  2  0  0  0
   27.6603  114.2917   47.3462  C    0  0  1  0  0  0
   26.7738  115.1517   46.4175  C    0  0  2  0  0  0
   27.3767  116.5638   46.3565  C    0  0  1  0  0  0
   28.9378  116.5536   46.0956  C    0  0  1  0  0  0
   29.4432  118.0424   46.2574  C    0  0  0  0  0  0
   31.3236  110.6631   43.5728  C    0  0  2  0  0  0
   30.2409  110.1548   44.6871  C    0  0  1  0  0  0
   29.4543  111.4459   45.2104  C    0  0  2  0  0  0
   30.3472  112.6771   45.4947  C    0  0  1  0  0  0
   31.3505  112.9771   44.3241  C    0  0  1  0  0  0
   32.3516  114.0913   44.6243  C    0  0  0  0  0  0
   29.8594  109.8351   38.5256  C    0  0  2  0  0  0
   29.9593  108.6592   39.4780  C    0  0  1  0  0  0
   29.9862  109.1503   40.9375  C    0  0  2  0  0  0
   30.9461  110.3947   41.1518  C    0  0  1  0  0  0
   30.7199  111.4647   40.0865  C    0  0  1  0  0  0
   31.7108  112.6862   40.0019  C    0  0  0  0  0  0
   24.5364  110.6934   37.1441  C    0  0  2  0  0  0
   24.9212  109.4996   38.0913  C    0  0  1  0  0  0
   26.1340  109.7520   38.9565  C    0  0  2  0  0  0
   27.2847  110.1262   37.9918  C    0  0  1  0  0  0
   26.8892  111.3399   37.1042  C    0  0  1  0  0  0
   27.9728  111.6442   36.0058  C    0  0  0  0  0  0
   20.9710  114.1956   39.1107  C    0  0  2  0  0  0
   20.8781  112.7339   39.5026  C    0  0  1  0  0  0
   22.1678  111.9034   39.2946  C    0  0  2  0  0  0
   22.8954  112.2892   37.9746  C    0  0  1  0  0  0
   22.9494  113.8836   37.6273  C    0  0  1  0  0  0
   23.5863  114.3255   36.2651  C    0  0  0  0  0  0
   21.5779  117.9229   42.8711  C    0  0  1  0  0  0
   20.5788  116.7782   43.1304  C    0  0  1  0  0  0
   21.0090  115.5504   42.3552  C    0  0  2  0  0  0
   21.0532  115.9188   40.8032  C    0  0  1  0  0  0
   21.9442  117.1995   40.5488  C    0  0  1  0  0  0
   21.7316  117.6840   39.0260  C    0  0  0  0  0  0
   24.9282  117.7918   47.6204  O    0  0  0  0  0  0
   22.4126  117.7591   45.9690  O    0  0  0  0  0  0
   22.9092  117.5210   43.0621  O    0  0  0  0  0  0
   25.9697  119.1286   44.2389  O    0  0  0  0  0  0
   26.5159  119.3696   41.5325  O    0  0  0  0  0  0
   27.0687  112.9272   47.3840  O    0  0  0  0  0  0
   25.4170  115.2454   47.0147  O    0  0  0  0  0  0
   26.6892  117.1414   45.2811  O    0  0  0  0  0  0
   29.7049  115.6357   46.9549  O    0  0  0  0  0  0
   30.9184  118.2234   46.1218  O    0  0  0  0  0  0
   29.3214  109.0605   44.2955  O    0  0  0  0  0  0
   28.6454  111.1687   46.3534  O    0  0  0  0  0  0
   29.4816  113.8162   45.6377  O    0  0  0  0  0  0
   32.0811  111.7698   44.0389  O    0  0  0  0  0  0
   33.2985  114.1721   43.5929  O    0  0  0  0  0  0
   28.8918  107.6813   39.2790  O    0  0  0  0  0  0
   30.3643  108.0657   41.8611  O    0  0  0  0  0  0
   30.5615  111.0442   42.3774  O    0  0  0  0  0  0
   30.8522  110.7784   38.7925  O    0  0  0  0  0  0
   31.4752  113.5263   38.8325  O    0  0  0  0  0  0
   23.8029  109.1038   38.9003  O    0  0  0  0  0  0
   26.4608  108.5057   39.6223  O    0  0  0  0  0  0
   28.5345  110.4704   38.7781  O    0  0  0  0  0  0
   25.7042  110.9718   36.3282  O    0  0  0  0  0  0
   28.1086  110.5793   35.0100  O    0  0  0  0  0  0
   20.4067  112.5751   40.7989  O    0  0  0  0  0  0
   21.7771  110.4873   39.3180  O    0  0  0  0  0  0
   24.3264  111.8661   37.9416  O    0  0  0  0  0  0
   21.6116  114.4328   37.8045  O    0  0  0  0  0  0
   22.8095  113.8912   35.1356  O    0  0  0  0  0  0
   20.5421  116.4880   44.5744  O    0  0  0  0  0  0
   20.1224  114.3940   42.6291  O    0  0  0  0  0  0
   21.7398  114.8105   40.1341  O    0  0  0  0  0  0
   21.5051  118.2684   41.4348  O    0  0  0  0  0  0
   22.6718  118.6516   38.7145  O    0  0  0  0  0  0
   29.1435  118.4989   47.2286  H    0  0  0  0  0  0
   28.8984  118.6081   45.4235  H    0  0  0  0  0  0
   25.2144  116.8641   47.3937  H    0  0  0  0  0  0
   22.5683  118.0509   46.8960  H    0  0  0  0  0  0
   26.4601  119.4869   40.5330  H    0  0  0  0  0  0
   27.7633  112.2618   47.0436  H    0  0  0  0  0  0
   25.0608  114.3429   47.2443  H    0  0  0  0  0  0
   31.3453  117.3739   46.3829  H    0  0  0  0  0  0
   29.8573  108.6701   43.5010  H    0  0  0  0  0  0
   27.9542  110.5264   45.9711  H    0  0  0  0  0  0
   33.2526  113.2306   43.2333  H    0  0  0  0  0  0
   27.9722  108.0959   39.3425  H    0  0  0  0  0  0
   31.1050  107.5148   41.4568  H    0  0  0  0  0  0
   32.3496  113.9348   38.4733  H    0  0  0  0  0  0
   23.1582  109.8072   39.0052  H    0  0  0  0  0  0
   25.7298  108.4415   40.3431  H    0  0  0  0  0  0
   27.1911  110.3140   34.7286  H    0  0  0  0  0  0
   19.4774  112.1572   40.7981  H    0  0  0  0  0  0
   21.3430  110.3495   40.2492  H    0  0  0  0  0  0
   22.1900  114.7285   35.1428  H    0  0  0  0  0  0
   21.3873  116.6087   45.0670  H    0  0  0  0  0  0
   20.3268  113.8443   41.7991  H    0  0  0  0  0  0
   22.7357  119.3216   39.4370  H    0  0  0  0  0  0
   26.9048  119.0519   46.1030  H    0  0  0  0  0  0
   24.3588  119.4936   46.4415  H    0  0  0  0  0  0
   24.0597  116.6562   45.1534  H    0  0  0  0  0  0
   23.3254  119.3580   44.0615  H    0  0  0  0  0  0
   25.4983  117.4265   43.1858  H    0  0  0  0  0  0
   24.6095  118.5187   41.3145  H    0  0  0  0  0  0
   24.6344  120.1259   42.0019  H    0  0  0  0  0  0
   29.8051  113.6852   47.7345  H    0  0  0  0  0  0
   27.5589  114.7011   48.3528  H    0  0  0  0  0  0
   26.7991  114.7159   45.4112  H    0  0  0  0  0  0
   27.2231  117.0944   47.3167  H    0  0  0  0  0  0
   29.0090  116.2249   45.0234  H    0  0  0  0  0  0
   31.9834  109.8696   43.3118  H    0  0  0  0  0  0
   30.7234  109.7630   45.5734  H    0  0  0  0  0  0
   28.8344  111.7350   44.3548  H    0  0  0  0  0  0
   31.0495  112.5003   46.3781  H    0  0  0  0  0  0
   30.7832  113.2487   43.4240  H    0  0  0  0  0  0
   32.8659  113.7193   45.4872  H    0  0  0  0  0  0
   31.9100  115.1104   44.9076  H    0  0  0  0  0  0
   29.9158  109.4695   37.5201  H    0  0  0  0  0  0
   30.9005  108.2454   39.1770  H    0  0  0  0  0  0
   28.9645  109.4299   41.1862  H    0  0  0  0  0  0
   32.0504  110.1427   41.2419  H    0  0  0  0  0  0
   29.6359  111.8446   40.1214  H    0  0  0  0  0  0
   31.5263  113.2468   40.9127  H    0  0  0  0  0  0
   32.7590  112.2413   40.0236  H    0  0  0  0  0  0
   23.7649  110.5176   36.4202  H    0  0  0  0  0  0
   25.1536  108.7067   37.3373  H    0  0  0  0  0  0
   25.9956  110.5567   39.6244  H    0  0  0  0  0  0
   27.4903  109.2829   37.3552  H    0  0  0  0  0  0
   26.6160  112.3124   37.6268  H    0  0  0  0  0  0
   27.7344  112.5782   35.5000  H    0  0  0  0  0  0
   28.9227  111.8195   36.5289  H    0  0  0  0  0  0
   20.0234  114.6523   38.9702  H    0  0  0  0  0  0
   20.2115  112.3573   38.7936  H    0  0  0  0  0  0
   22.7622  112.0527   40.2077  H    0  0  0  0  0  0
   22.3812  111.8348   37.1264  H    0  0  0  0  0  0
   23.5590  114.3559   38.3587  H    0  0  0  0  0  0
   23.6776  115.3848   36.2587  H    0  0  0  0  0  0
   24.6484  113.9814   36.2159  H    0  0  0  0  0  0
   21.2519  118.8065   43.4552  H    0  0  0  0  0  0
   19.6531  117.1297   42.6781  H    0  0  0  0  0  0
   22.0199  115.3202   42.7135  H    0  0  0  0  0  0
   19.9963  116.0462   40.5386  H    0  0  0  0  0  0
   23.0241  117.0318   40.6438  H    0  0  0  0  0  0
   20.6784  117.9531   38.8781  H    0  0  0  0  0  0
   22.0456  116.8555   38.3792  H    0  0  0  0  0  0
  1  2  1  0  0  0
  1 46  1  0  0  0
  1 50  1  0  0  0
  1101  1  0  0  0
  2  3  1  0  0  0
  2 43  1  0  0  0
  2102  1  0  0  0
  3  4  1  0  0  0
  3 44  1  0  0  0
  3103  1  0  0  0
  4  5  1  0  0  0
  4 45  1  0  0  0
  4104  1  0  0  0
  5  6  1  0  0  0
  5 46  1  0  0  0
  5105  1  0  0  0
  6 47  1  0  0  0
  6106  1  0  0  0
  6107  1  0  0  0
  7  8  1  0  0  0
  7 51  1  0  0  0
  7 55  1  0  0  0
  7108  1  0  0  0
  8  9  1  0  0  0
  8 48  1  0  0  0
  8109  1  0  0  0
  9 10  1  0  0  0
  9 49  1  0  0  0
  9110  1  0  0  0
 10 11  1  0  0  0
 10 50  1  0  0  0
 10111  1  0  0  0
 11 12  1  0  0  0
 11 51  1  0  0  0
 11112  1  0  0  0
 12 52  1  0  0  0
 12 78  1  0  0  0
 12 79  1  0  0  0
 13 14  1  0  0  0
 13 56  1  0  0  0
 13 60  1  0  0  0
 13113  1  0  0  0
 14 15  1  0  0  0
 14 53  1  0  0  0
 14114  1  0  0  0
 15 16  1  0  0  0
 15 54  1  0  0  0
 15115  1  0  0  0
 16 17  1  0  0  0
 16 55  1  0  0  0
 16116  1  0  0  0
 17 18  1  0  0  0
 17 56  1  0  0  0
 17117  1  0  0  0
 18 57  1  0  0  0
 18118  1  0  0  0
 18119  1  0  0  0
 19 20  1  0  0  0
 19 61  1  0  0  0
 19 65  1  0  0  0
 19120  1  0  0  0
 20 21  1  0  0  0
 20 58  1  0  0  0
 20121  1  0  0  0
 21 22  1  0  0  0
 21 59  1  0  0  0
 21122  1  0  0  0
 22 23  1  0  0  0
 22 60  1  0  0  0
 22123  1  0  0  0
 23 24  1  0  0  0
 23 61  1  0  0  0
 23124  1  0  0  0
 24 62  1  0  0  0
 24125  1  0  0  0
 24126  1  0  0  0
 25 26  1  0  0  0
 25 66  1  0  0  0
 25 70  1  0  0  0
 25127  1  0  0  0
 26 27  1  0  0  0
 26 63  1  0  0  0
 26128  1  0  0  0
 27 28  1  0  0  0
 27 64  1  0  0  0
 27129  1  0  0  0
 28 29  1  0  0  0
 28 65  1  0  0  0
 28130  1  0  0  0
 29 30  1  0  0  0
 29 66  1  0  0  0
 29131  1  0  0  0
 30 67  1  0  0  0
 30132  1  0  0  0
 30133  1  0  0  0
 31 32  1  0  0  0
 31 71  1  0  0  0
 31 75  1  0  0  0
 31134  1  0  0  0
 32 33  1  0  0  0
 32 68  1  0  0  0
 32135  1  0  0  0
 33 34  1  0  0  0
 33 69  1  0  0  0
 33136  1  0  0  0
 34 35  1  0  0  0
 34 70  1  0  0  0
 34137  1  0  0  0
 35 36  1  0  0  0
 35 71  1  0  0  0
 35138  1  0  0  0
 36 72  1  0  0  0
 36139  1  0  0  0
 36140  1  0  0  0
 37 38  1  0  0  0
 37 45  1  0  0  0
 37 76  1  0  0  0
 37141  1  0  0  0
 38 39  1  0  0  0
 38 73  1  0  0  0
 38142  1  0  0  0
 39 40  1  0  0  0
 39 74  1  0  0  0
 39143  1  0  0  0
 40 41  1  0  0  0
 40 75  1  0  0  0
 40144  1  0  0  0
 41 42  1  0  0  0
 41 76  1  0  0  0
 41145  1  0  0  0
 42 77  1  0  0  0
 42146  1  0  0  0
 42147  1  0  0  0
 43 80  1  0  0  0
 44 81  1  0  0  0
 47 82  1  0  0  0
 48 83  1  0  0  0
 49 84  1  0  0  0
 52 85  1  0  0  0
 53 86  1  0  0  0
 54 87  1  0  0  0
 57 88  1  0  0  0
 58 89  1  0  0  0
 59 90  1  0  0  0
 62 91  1  0  0  0
 63 92  1  0  0  0
 64 93  1  0  0  0
 67 94  1  0  0  0
 68 95  1  0  0  0
 69 96  1  0  0  0
 72 97  1  0  0  0
 73 98  1  0  0  0
 74 99  1  0  0  0
 77100  1  0  0  0
M  END
> <s_m_entry_id>
15

> <s_m_Source_Path>
/home/emilio/Dropbox/sims/SAMPL9/work/receptor

> <s_m_Source_File>
bCD.mol2

> <i_m_Source_File_Index>
1

$$$$

