CPZ1assS
                    3D
 Schrodinger Suite 2019-4.
 41 43  0  0  1  0            999 V2000
   29.3980  112.3381   45.1241 C   0  0  0  0  0  0
   28.2588  112.4179   45.9481 C   0  0  0  0  0  0
   29.7156  111.1298   44.4718 C   0  0  0  0  0  0
   27.4367  111.2892   46.1196 C   0  0  0  0  0  0
   27.6252  106.1295   46.1861 C   0  0  0  0  0  0
   28.5527  105.0776   46.0909 C   0  0  0  0  0  0
   29.9922  106.4829   44.7087 C   0  0  0  0  0  0
   28.9056  109.9835   44.6522 C   0  0  0  0  0  0
   29.0449  107.5291   44.7518 C   0  0  0  0  0  0
   27.7573  110.0765   45.4793 C   0  0  0  0  0  0
   27.8745  107.3523   45.5328 C   0  0  0  0  0  0
   29.7450  105.2606   45.3661 C   0  0  0  0  0  0
   27.3706  105.7656   39.6831 C   0  0  0  0  0  0
   28.8661  106.8549   38.0607 C   0  0  0  0  0  0
   28.6508  107.6600   41.7867 C   0  0  0  0  0  0
   29.1719  108.8678   42.5995 C   0  0  0  0  0  0
   28.4672  107.8995   40.2705 C   0  0  0  0  0  0
   29.2480  108.7486   44.0712 N   0  0  0  0  0  0
   28.5562  106.6307   39.4951 N   0  3  0  0  0  0
   26.7152  108.6698   45.7464 S   0  0  0  0  0  0
   30.8988  103.9846   45.2623 Cl  0  0  0  0  0  0
   30.0378  113.1993   45.0051 H   0  0  0  0  0  0
   28.0234  113.3405   46.4607 H   0  0  0  0  0  0
   30.6131  111.0856   43.8748 H   0  0  0  0  0  0
   26.5679  111.3422   46.7586 H   0  0  0  0  0  0
   26.7233  106.0105   46.7699 H   0  0  0  0  0  0
   28.3644  104.1430   46.5975 H   0  0  0  0  0  0
   30.9295  106.6085   44.1918 H   0  0  0  0  0  0
   26.4641  106.2787   39.3676 H   0  0  0  0  0  0
   27.2458  105.4854   40.7279 H   0  0  0  0  0  0
   27.4502  104.8377   39.1058 H   0  0  0  0  0  0
   28.0731  107.4227   37.5739 H   0  0  0  0  0  0
   28.9842  105.9118   37.5276 H   0  0  0  0  0  0
   29.7953  107.4092   37.9409 H   0  0  0  0  0  0
   29.2470  106.7807   42.0185 H   0  0  0  0  0  0
   27.6603  107.4313   42.1797 H   0  0  0  0  0  0
   30.2363  108.9149   42.6106 H   0  0  0  0  0  0
   28.8355  109.8076   42.0577 H   0  0  0  0  0  0
   27.5142  108.3950   40.0686 H   0  0  0  0  0  0
   29.2156  108.5981   39.8996 H   0  0  0  0  0  0
   29.3479  106.1170   39.8595 H   0  0  0  0  0  0
  1  2  2  0  0  0
  1  3  1  0  0  0
  1 22  1  0  0  0
  2  4  1  0  0  0
  2 23  1  0  0  0
  3  8  2  0  0  0
  3 24  1  0  0  0
  4 10  2  0  0  0
  4 25  1  0  0  0
  5  6  2  0  0  0
  5 11  1  0  0  0
  5 26  1  0  0  0
  6 12  1  0  0  0
  6 27  1  0  0  0
  7  9  1  0  0  0
  7 12  2  0  0  0
  7 28  1  0  0  0
  8 10  1  0  0  0
  8 18  1  0  0  0
  9 11  2  0  0  0
  9 18  1  0  0  0
 10 20  1  0  0  0
 11 20  1  0  0  0
 12 21  1  0  0  0
 13 19  1  0  0  0
 13 29  1  0  0  0
 13 30  1  0  0  0
 13 31  1  0  0  0
 14 19  1  0  0  0
 14 32  1  0  0  0
 14 33  1  0  0  0
 14 34  1  0  0  0
 15 16  1  0  0  0
 15 17  1  0  0  0
 15 35  1  0  0  0
 15 36  1  0  0  0
 16 18  1  0  0  0
 16 37  1  0  0  0
 16 38  1  0  0  0
 17 19  1  0  0  0
 17 39  1  0  0  0
 17 40  1  0  0  0
 19 41  1  0  0  0
M  CHG  1  19   1
M  END
> <s_m_entry_id>
447

> <s_m_Source_Path>
/home/emilio/Dropbox/SAMPL9-eglab/mCD/ligsdfs

> <s_m_Source_File>
CPZ1assS.sdf

> <i_m_Source_File_Index>
1

> <r_epik_Ionization_Penalty>
  0.0036

> <r_epik_State_Penalty>
  0.0025

> <i_epik_Tot_Q>
1

> <s_m_job_name>
ligprep_4

> <i_f3d_flags>
0

$$$$
