@<TRIPOS>MOLECULE
LIG
41 43
SMALL
USER_CHARGES
@<TRIPOS>ATOM
      1 C1         29.3980  112.3381   45.1241 AA             0 LIG     -0.148984
      2 C2         28.2588  112.4179   45.9481 AB             0 LIG     -0.148984
      3 C3         29.7156  111.1298   44.4718 AD             0 LIG     -0.216162
      4 C4         27.4367  111.2892   46.1196 AE             0 LIG     -0.191448
      5 C5         27.6252  106.1295   46.1861 AF             0 LIG     -0.191448
      6 C6         28.5527  105.0776   46.0909 AH             0 LIG     -0.201273
      7 C7         29.9922  106.4829   44.7087 AI             0 LIG     -0.282378
      8 C8         28.9056  109.9835   44.6522 AJ             0 LIG     0.090825
      9 C9         29.0449  107.5291   44.7518 AK             0 LIG     0.090825
     10 C10        27.7573  110.0765   45.4793 AN             0 LIG     0.113170
     11 C11        27.8745  107.3523   45.5328 AO             0 LIG     0.113170
     12 C12        29.7450  105.2606   45.3661 AP             0 LIG     0.139586
     13 C13        27.3706  105.7656   39.6831 AQ             0 LIG     -0.327670
     14 C14        28.8661  106.8549   38.0607 AV             0 LIG     -0.327670
     15 C15        28.6508  107.6600   41.7867 AW             0 LIG     -0.018552
     16 C16        29.1719  108.8678   42.5995 AX             0 LIG     0.030051
     17 C17        28.4672  107.8995   40.2705 AY             0 LIG     0.155353
     18 N1         29.2480  108.7486   44.0712 AZ             0 LIG     -0.186524
     19 N2         28.5562  106.6307   39.4951 BB             0 LIG     0.134459
     20 S1         26.7152  108.6698   45.7464 BC             0 LIG     -0.184949
     21 CL1        30.8988  103.9846   45.2623 BD             0 LIG     -0.163674
     22 H1         30.0378  113.1993   45.0051 BF             0 LIG     0.167367
     23 H2         28.0234  113.3405   46.4607 BG             0 LIG     0.167367
     24 H3         30.6131  111.0856   43.8748 BH             0 LIG     0.144463
     25 H4         26.5679  111.3422   46.7586 BJ             0 LIG     0.182657
     26 H5         26.7233  106.0105   46.7699 BK             0 LIG     0.182657
     27 H6         28.3644  104.1430   46.5975 BL             0 LIG     0.185066
     28 H7         30.9295  106.6085   44.1918 BM             0 LIG     0.159917
     29 H8         26.4641  106.2787   39.3676 BN             0 LIG     0.163775
     30 H9         27.2458  105.4854   40.7279 BO             0 LIG     0.163775
     31 H10        27.4502  104.8377   39.1058 BP             0 LIG     0.163775
     32 H11        28.0731  107.4227   37.5739 BQ             0 LIG     0.163775
     33 H12        28.9842  105.9118   37.5276 BS             0 LIG     0.163775
     34 H13        29.7953  107.4092   37.9409 BT             0 LIG     0.163775
     35 H14        29.2470  106.7807   42.0185 BU             0 LIG     0.042423
     36 H15        27.6603  107.4313   42.1797 BV             0 LIG     0.042423
     37 H16        30.2363  108.9149   42.6106 BW             0 LIG     0.092460
     38 H17        28.8355  109.8076   42.0577 BX             0 LIG     0.092460
     39 H18        27.5142  108.3950   40.0686 BY             0 LIG     0.021392
     40 H19        29.2156  108.5981   39.8996 BZ             0 LIG     0.021392
     41 H20        29.3479  106.1170   39.8595 CB             0 LIG     0.237587
@<TRIPOS>BOND
        1  1  2  2
        2  1  3  1
        3  1  22  1
        4  2  4  1
        5  2  23  1
        6  3  8  2
        7  3  24  1
        8  4  10  2
        9  4  25  1
        10  5  6  1
        11  5  11  2
        12  5  26  1
        13  6  12  2
        14  6  27  1
        15  7  9  2
        16  7  12  1
        17  7  28  1
        18  8  10  1
        19  8  18  1
        20  9  11  1
        21  9  18  1
        22  10  20  1
        23  11  20  1
        24  12  21  1
        25  13  19  1
        26  13  29  1
        27  13  30  1
        28  13  31  1
        29  14  19  1
        30  14  32  1
        31  14  33  1
        32  14  34  1
        33  15  16  1
        34  15  17  1
        35  15  35  1
        36  15  36  1
        37  16  18  1
        38  16  37  1
        39  16  38  1
        40  17  19  1
        41  17  39  1
        42  17  40  1
        43  19  41  1
@<TRIPOS>SUBSTRUCTURE
       1 LIG             1 RESIDUE    0 **** ROOT      0

