@<TRIPOS>MOLECULE
LIG
41 43
SMALL
USER_CHARGES
@<TRIPOS>ATOM
      1 C1         29.2764  112.4073   44.9843 AA             0 LIG     -0.150100
      2 C2         29.7444  105.2586   45.3678 AB             0 LIG     -0.150100
      3 C3         28.1033  112.4726   45.7958 AD             0 LIG     -0.150100
      4 C4         28.5824  105.0988   46.1415 AE             0 LIG     -0.150100
      5 C5         29.6278  111.1665   44.3997 AF             0 LIG     -0.220762
      6 C6         29.9826  106.4711   44.6906 AH             0 LIG     -0.220762
      7 C7         27.3052  111.3032   46.0003 AI             0 LIG     -0.190531
      8 C8         27.6661  106.1579   46.2480 AJ             0 LIG     -0.190531
      9 C9         28.8597  110.0038   44.5969 AK             0 LIG     0.084657
     10 C10        29.0540  107.5405   44.7666 AN             0 LIG     0.084657
     11 C11        27.6986  110.0944   45.4188 AO             0 LIG     0.115853
     12 C12        27.8956  107.3707   45.5697 AP             0 LIG     0.115853
     13 C13        29.6682  106.2146   41.7492 AQ             0 LIG     -0.353988
     14 C14        27.0962  107.9806   39.9811 AV             0 LIG     -0.185375
     15 C15        29.3075  107.2552   39.2179 AW             0 LIG     -0.185375
     16 C16        29.2934  108.8096   42.5503 AX             0 LIG     0.002465
     17 C17        28.8944  107.5586   41.6668 AY             1 LIG     0.085935
     18 N1         29.2517  108.7544   44.0636 AZ             0 LIG     -0.190232
     19 N2         28.5609  107.9781   40.2737 BB             0 LIG     0.109280
     20 S1         26.7111  108.6681   45.7498 BC             0 LIG     -0.188456
     21 H1         29.8664  113.2779   44.8545 BD             0 LIG     0.166423
     22 H2         30.4670  104.4552   45.3180 BF             0 LIG     0.166423
     23 H3         27.8238  113.4079   46.2626 BG             0 LIG     0.166423
     24 H4         28.4033  104.1728   46.6732 BH             0 LIG     0.166423
     25 H5         30.5516  111.1572   43.8427 BJ             0 LIG     0.128375
     26 H6         30.9060  106.5559   44.1420 BK             0 LIG     0.128375
     27 H7         26.4483  111.3744   46.6318 BL             0 LIG     0.178440
     28 H8         26.7900  106.0524   46.8712 BM             0 LIG     0.178440
     29 H9         29.8568  105.9141   42.7838 BN             0 LIG     0.122803
     30 H10        30.5812  106.2125   41.2064 BO             0 LIG     0.122803
     31 H11        29.1632  105.3703   41.2562 BP             0 LIG     0.122803
     32 H12        26.7053  106.9681   39.9146 BQ             0 LIG     0.123915
     33 H13        26.9105  108.4653   39.0252 BS             0 LIG     0.123915
     34 H14        26.5408  108.5189   40.7454 BT             0 LIG     0.123915
     35 H15        29.0746  106.1905   39.2310 BU             0 LIG     0.123915
     36 H16        30.3894  107.3765   39.3190 BV             0 LIG     0.123915
     37 H17        29.0553  107.6242   38.2277 BW             0 LIG     0.123915
     38 H18        30.3458  108.9454   42.6074 BX             0 LIG     0.090289
     39 H19        29.0212  109.7201   41.8745 BY             0 LIG     0.090289
     40 H20        27.9205  107.2760   42.1030 BZ             0 LIG     0.141962
     41 H21        28.8489  108.9392   40.2093 CB             0 LIG     0.213953
@<TRIPOS>BOND
        1  1  3  2
        2  1  5  1
        3  1  21  1
        4  2  4  2
        5  2  6  1
        6  2  22  1
        7  3  7  1
        8  3  23  1
        9  4  8  1
        10  4  24  1
        11  5  9  2
        12  5  25  1
        13  6  10  2
        14  6  26  1
        15  7  11  2
        16  7  27  1
        17  8  12  2
        18  8  28  1
        19  9  11  1
        20  9  18  1
        21  10  12  1
        22  10  18  1
        23  11  20  1
        24  12  20  1
        25  13  17  1
        26  13  29  1
        27  13  30  1
        28  13  31  1
        29  14  19  1
        30  14  32  1
        31  14  33  1
        32  14  34  1
        33  15  19  1
        34  15  35  1
        35  15  36  1
        36  15  37  1
        37  16  17  1
        38  16  18  1
        39  16  38  1
        40  16  39  1
        41  17  19  1
        42  17  40  1
        43  19  41  1
@<TRIPOS>SUBSTRUCTURE
       1 LIG             1 RESIDUE    0 **** ROOT      0

