@<TRIPOS>MOLECULE
LIG
41 43
SMALL
USER_CHARGES
@<TRIPOS>ATOM
      1 C1         29.3119  112.3867   44.8771 PA             0 LIG     -0.151978
      2 C2         29.7882  105.2401   45.3476 PB             0 LIG     -0.151978
      3 C3         28.1056  112.6015   45.4835 PD             0 LIG     -0.151978
      4 C4         28.6216  105.1433   46.1223 PE             0 LIG     -0.151978
      5 C5         29.8081  111.0725   44.4577 PF             0 LIG     -0.221382
      6 C6         30.1281  106.5543   44.8370 PH             0 LIG     -0.221382
      7 C7         27.3141  111.4742   45.8145 PI             0 LIG     -0.192007
      8 C8         27.6925  106.2281   46.2936 PJ             0 LIG     -0.192007
      9 C9         28.9907  109.9425   44.7873 PK             0 LIG     0.086899
     10 C10        29.1751  107.6161   44.9288 PN             0 LIG     0.086899
     11 C11        27.7544  110.1107   45.5010 PO             0 LIG     0.115779
     12 C12        28.0030  107.4300   45.7120 PP             0 LIG     0.115779
     13 C13        26.5259  105.3199   40.6290 PQ             0 LIG     -0.319173
     14 C14        27.7209  106.1700   38.6634 PV             0 LIG     -0.319173
     15 C15        28.3993  107.3125   42.1680 PW             0 LIG     -0.018118
     16 C16        29.1461  108.6181   42.5997 PX             0 LIG     0.036275
     17 C17        28.1738  107.3164   40.7080 PY             0 LIG     0.012268
     18 N1         29.2019  108.7132   44.1173 PZ             0 LIG     -0.191498
     19 N2         27.8585  105.9566   40.0912 QB             0 LIG     0.153200
     20 S1         26.7183  108.7254   45.7186 QC             0 LIG     -0.201542
     21 H1         29.9788  113.2331   44.5677 QD             0 LIG     0.160898
     22 H2         30.4462  104.4437   45.2712 QF             0 LIG     0.160898
     23 H3         27.7933  113.5925   45.8692 QG             0 LIG     0.160898
     24 H4         28.2581  104.1290   46.4396 QH             0 LIG     0.160898
     25 H5         30.7803  110.9211   44.0591 QJ             0 LIG     0.134456
     26 H6         31.1468  106.7081   44.3850 QK             0 LIG     0.134456
     27 H7         26.3493  111.7559   46.2980 QL             0 LIG     0.174337
     28 H8         26.6956  106.1225   46.6701 QM             0 LIG     0.174337
     29 H9         26.4462  104.4737   39.9098 QN             0 LIG     0.158404
     30 H10        25.7795  106.1358   40.4493 QO             0 LIG     0.158404
     31 H11        26.5556  104.9950   41.6276 QP             0 LIG     0.158404
     32 H12        28.6881  106.6705   38.3296 QQ             0 LIG     0.158404
     33 H13        26.9385  106.9158   38.5691 QS             0 LIG     0.158404
     34 H14        27.3631  105.2502   38.2253 QT             0 LIG     0.158404
     35 H15        28.9687  106.4213   42.4691 QU             0 LIG     0.041463
     36 H16        27.4369  107.3509   42.6906 QV             0 LIG     0.041463
     37 H17        30.2040  108.7003   42.2112 QW             0 LIG     0.085391
     38 H18        28.5141  109.4862   42.2443 QX             0 LIG     0.085391
     39 H19        27.3929  107.9468   40.3880 QY             0 LIG     0.073022
     40 H20        29.1442  107.6076   40.2667 QZ             0 LIG     0.073022
     41 H21        28.7096  105.3182   40.3846 RB             0 LIG     0.265740
@<TRIPOS>BOND
        1  1  3  2
        2  1  5  1
        3  1  21  1
        4  2  4  2
        5  2  6  1
        6  2  22  1
        7  3  7  1
        8  3  23  1
        9  4  8  1
        10  4  24  1
        11  5  9  2
        12  5  25  1
        13  6  10  2
        14  6  26  1
        15  7  11  2
        16  7  27  1
        17  8  12  2
        18  8  28  1
        19  9  11  1
        20  9  18  1
        21  10  12  1
        22  10  18  1
        23  11  20  1
        24  12  20  1
        25  13  19  1
        26  13  29  1
        27  13  30  1
        28  13  31  1
        29  14  19  1
        30  14  32  1
        31  14  33  1
        32  14  34  1
        33  15  16  1
        34  15  17  1
        35  15  35  1
        36  15  36  1
        37  16  18  1
        38  16  37  1
        39  16  38  1
        40  17  19  1
        41  17  39  1
        42  17  40  1
        43  19  41  1
@<TRIPOS>SUBSTRUCTURE
       1 LIG             1 RESIDUE    0 **** ROOT      0

