PMZ1assS
                    3D
 Schrodinger Suite 2019-4.
 41 43  0  0  1  0            999 V2000
   29.3119  112.3867   44.8771  C    0  0  0  0  0  0
   29.7882  105.2401   45.3476  C    0  0  0  0  0  0
   28.1056  112.6015   45.4835  C    0  0  0  0  0  0
   28.6216  105.1433   46.1223  C    0  0  0  0  0  0
   29.8081  111.0725   44.4577  C    0  0  0  0  0  0
   30.1281  106.5543   44.8370  C    0  0  0  0  0  0
   27.3141  111.4742   45.8145  C    0  0  0  0  0  0
   27.6925  106.2281   46.2936  C    0  0  0  0  0  0
   28.9907  109.9425   44.7873  C    0  0  0  0  0  0
   29.1751  107.6161   44.9288  C    0  0  0  0  0  0
   27.7544  110.1107   45.5010  C    0  0  0  0  0  0
   28.0030  107.4300   45.7120  C    0  0  0  0  0  0
   25.2826  107.0133   40.5686  C    0  0  0  0  0  0
   26.7937  107.1019   38.6391  C    0  0  0  0  0  0
   27.8591  107.8474   42.1543  C    0  0  0  0  0  0
   29.1461  108.6181   42.5997  C    0  0  0  0  0  0
   27.7042  107.9242   40.6872  C    0  0  0  0  0  0
   29.2019  108.7132   44.1173  N    0  0  0  0  0  0
   26.7688  106.8865   40.0730  N    0  3  0  0  0  0
   26.7183  108.7254   45.7186  S    0  0  0  0  0  0
   29.9788  113.2331   44.5677  H    0  0  0  0  0  0
   30.4462  104.4437   45.2712  H    0  0  0  0  0  0
   27.7933  113.5925   45.8692  H    0  0  0  0  0  0
   28.2581  104.1290   46.4396  H    0  0  0  0  0  0
   30.7803  110.9211   44.0591  H    0  0  0  0  0  0
   31.1468  106.7081   44.3850  H    0  0  0  0  0  0
   26.3493  111.7559   46.2980  H    0  0  0  0  0  0
   26.6956  106.1225   46.6701  H    0  0  0  0  0  0
   24.8103  106.3005   39.8555  H    0  0  0  0  0  0
   25.0479  108.0875   40.3539  H    0  0  0  0  0  0
   25.1199  106.7436   41.5708  H    0  0  0  0  0  0
   27.8901  107.0447   38.3355  H    0  0  0  0  0  0
   26.4906  108.1356   38.5091  H    0  0  0  0  0  0
   26.0364  106.4715   38.1975  H    0  0  0  0  0  0
   27.8997  106.7994   42.4847  H    0  0  0  0  0  0
   27.0309  108.3743   42.6414  H    0  0  0  0  0  0
   30.1137  108.1517   42.2489  H    0  0  0  0  0  0
   29.0412  109.6758   42.2130  H    0  0  0  0  0  0
   27.3508  108.8511   40.3329  H    0  0  0  0  0  0
   28.7017  107.6811   40.2784  H    0  0  0  0  0  0
   27.1797  105.9170   40.4033  H    0  0  0  0  0  0
  1  3  2  0  0  0
  1  5  1  0  0  0
  1 21  1  0  0  0
  2  4  2  0  0  0
  2  6  1  0  0  0
  2 22  1  0  0  0
  3  7  1  0  0  0
  3 23  1  0  0  0
  4  8  1  0  0  0
  4 24  1  0  0  0
  5  9  2  0  0  0
  5 25  1  0  0  0
  6 10  2  0  0  0
  6 26  1  0  0  0
  7 11  2  0  0  0
  7 27  1  0  0  0
  8 12  2  0  0  0
  8 28  1  0  0  0
  9 11  1  0  0  0
  9 18  1  0  0  0
 10 12  1  0  0  0
 10 18  1  0  0  0
 11 20  1  0  0  0
 12 20  1  0  0  0
 13 19  1  0  0  0
 13 29  1  0  0  0
 13 30  1  0  0  0
 13 31  1  0  0  0
 14 19  1  0  0  0
 14 32  1  0  0  0
 14 33  1  0  0  0
 14 34  1  0  0  0
 15 16  1  0  0  0
 15 17  1  0  0  0
 15 35  1  0  0  0
 15 36  1  0  0  0
 16 18  1  0  0  0
 16 37  1  0  0  0
 16 38  1  0  0  0
 17 19  1  0  0  0
 17 39  1  0  0  0
 17 40  1  0  0  0
 19 41  1  0  0  0
M  CHG  1  19   1
M  END
> <s_m_entry_id>
193

> <s_m_Source_Path>
/home/emilio/Dropbox/SAMPL9-eglab/mCD/ligsdfs

> <s_m_Source_File>
PMZ1assS.sdf

> <i_m_Source_File_Index>
1

> <r_epik_Ionization_Penalty>
  0.0034

> <r_epik_State_Penalty>
  0.0024

> <i_epik_Tot_Q>
1

> <s_m_job_name>
ligprep_4

> <i_f3d_flags>
0

$$$$

