@<TRIPOS>MOLECULE
LIG
52 55
SMALL
USER_CHARGES
@<TRIPOS>ATOM
      1 C1         29.2030  112.4254   44.8247 AA             0 LIG     -0.151741
      2 C2         28.0799  112.4714   45.7418 AB             0 LIG     -0.151741
      3 C3         29.5436  111.1867   44.2663 AD             0 LIG     -0.220252
      4 C4         27.3359  111.2995   46.0127 AE             0 LIG     -0.194616
      5 C5         27.6038  106.1217   46.1553 AF             0 LIG     -0.194616
      6 C6         28.5206  105.0615   46.0401 AH             0 LIG     -0.194616
      7 C7         30.0231  106.5318   44.8144 AI             0 LIG     -0.276550
      8 C8         28.8362  110.0010   44.5524 AJ             0 LIG     0.084603
      9 C9         29.0559  107.5561   44.7969 AK             0 LIG     0.084603
     10 C10        27.7010  110.0851   45.4133 AN             0 LIG     0.112404
     11 C11        27.8674  107.3599   45.5398 AO             0 LIG     0.112404
     12 C12        29.7391  105.2718   45.3647 AP             0 LIG     0.163041
     13 C13        31.9952  104.8124   42.2769 AQ             0 LIG     -0.029878
     14 C14        31.2124  103.5014   42.0792 AV             0 LIG     -0.034345
     15 C15        31.2498  106.0099   41.6506 AW             0 LIG     -0.054555
     16 C16        29.7420  103.6499   42.5306 AX             0 LIG     0.011138
     17 C17        29.7978  106.0906   42.1947 AY             1 LIG     0.149935
     18 C18        28.7882  104.5712   40.4449 AZ             0 LIG     -0.244054
     19 C19        30.2198  102.4322   45.7351 BB             0 LIG     -0.160589
     20 C20        28.9889  107.3597   41.7894 BC             0 LIG     -0.033239
     21 C21        29.2767  108.6354   42.6150 BD             0 LIG     0.039575
     22 N1         29.2615  108.7434   44.0644 BF             0 LIG     -0.187004
     23 N2         29.0754  104.8182   41.8837 BG             2 LIG     -0.070769
     24 S1         26.7063  108.6642   45.7546 BH             0 LIG     -0.197900
     25 S2         30.9250  103.9877   45.1239 BJ             0 LIG     -0.258446
     26 H1         29.7372  113.3060   44.6251 BK             0 LIG     0.161610
     27 H2         27.8152  113.4088   46.2113 BL             0 LIG     0.161610
     28 H3         30.4118  111.1931   43.6247 BM             0 LIG     0.136076
     29 H4         26.5021  111.3495   46.6916 BN             0 LIG     0.176324
     30 H5         26.6878  105.9998   46.7163 BO             0 LIG     0.176324
     31 H6         28.2910  104.1150   46.5027 BP             0 LIG     0.176324
     32 H7         31.0080  106.7190   44.4186 BQ             0 LIG     0.140791
     33 H8         32.1405  104.9926   43.3435 BS             0 LIG     0.046381
     34 H9         32.9971  104.7254   41.8478 BT             0 LIG     0.046381
     35 H10        31.2738  103.1943   41.0320 BU             0 LIG     0.049941
     36 H11        31.7017  102.7021   42.6404 BV             0 LIG     0.049941
     37 H12        31.7972  106.9219   41.8787 BW             0 LIG     0.046927
     38 H13        31.2581  105.9259   40.5646 BX             0 LIG     0.046927
     39 H14        29.1956  102.7244   42.3256 BY             0 LIG     0.081886
     40 H15        29.7192  103.7779   43.6158 BZ             0 LIG     0.081886
     41 H16        29.8773  106.1115   43.2766 CB             0 LIG     0.038290
     42 H17        29.6824  104.3154   39.8773 CI             0 LIG     0.142123
     43 H18        28.3359  105.4306   39.9560 CJ             0 LIG     0.142123
     44 H19        28.0861  103.7446   40.3286 CK             0 LIG     0.142123
     45 H20        30.9100  101.6152   45.5212 CM             0 LIG     0.110774
     46 H21        29.2700  102.2152   45.2441 CN             0 LIG     0.110774
     47 H22        30.0585  102.4650   46.8142 CT             0 LIG     0.110774
     48 H23        29.3389  107.6305   40.7883 CW             0 LIG     0.042019
     49 H24        27.9218  107.1790   41.6771 DA             0 LIG     0.042019
     50 H25        30.2660  108.6721   42.8997 DB             0 LIG     0.082888
     51 H26        28.9958  109.5145   42.0575 DC             0 LIG     0.082888
     52 H27        28.1752  104.8907   42.3350 DD             0 LIG     0.271082
@<TRIPOS>BOND
        1  1  2  2
        2  1  3  1
        3  1  26  1
        4  2  4  1
        5  2  27  1
        6  3  8  2
        7  3  28  1
        8  4  10  2
        9  4  29  1
        10  5  6  1
        11  5  11  2
        12  5  30  1
        13  6  12  2
        14  6  31  1
        15  7  9  2
        16  7  12  1
        17  7  32  1
        18  8  10  1
        19  8  22  1
        20  9  11  1
        21  9  22  1
        22  10  24  1
        23  11  24  1
        24  12  25  1
        25  13  14  1
        26  13  15  1
        27  13  33  1
        28  13  34  1
        29  14  16  1
        30  14  35  1
        31  14  36  1
        32  15  17  1
        33  15  37  1
        34  15  38  1
        35  16  23  1
        36  16  39  1
        37  16  40  1
        38  17  20  1
        39  17  23  1
        40  17  41  1
        41  18  23  1
        42  18  42  1
        43  18  43  1
        44  18  44  1
        45  19  25  1
        46  19  45  1
        47  19  46  1
        48  19  47  1
        49  20  21  1
        50  20  48  1
        51  20  49  1
        52  21  22  1
        53  21  50  1
        54  21  51  1
        55  23  52  1
@<TRIPOS>SUBSTRUCTURE
       1 LIG             1 RESIDUE    0 **** ROOT      0

