@<TRIPOS>MOLECULE
LIG
52 55
SMALL
USER_CHARGES
@<TRIPOS>ATOM
      1 C1         29.1695  112.4145   44.8506 AA             0 LIG     -0.151259
      2 C2         28.0801  112.4713   45.7416 AB             0 LIG     -0.151259
      3 C3         29.5442  111.1914   44.2660 AD             0 LIG     -0.219304
      4 C4         27.3410  111.3058   46.0117 AE             0 LIG     -0.194592
      5 C5         27.6037  106.1218   46.1553 AF             0 LIG     -0.194592
      6 C6         28.5207  105.0615   46.0403 AH             0 LIG     -0.194592
      7 C7         30.0232  106.5319   44.8144 AI             0 LIG     -0.277127
      8 C8         28.8339  109.9997   44.5540 AJ             0 LIG     0.085655
      9 C9         29.0559  107.5560   44.7967 AK             0 LIG     0.085655
     10 C10        27.7024  110.0830   45.4116 AN             0 LIG     0.112307
     11 C11        27.8674  107.3598   45.5398 AO             0 LIG     0.112307
     12 C12        29.7391  105.2719   45.3647 AP             0 LIG     0.162844
     13 C13        24.7399  107.9248   41.1248 AQ             0 LIG     -0.032521
     14 C14        24.7496  107.6496   39.6153 AV             0 LIG     -0.034488
     15 C15        26.0290  107.4002   41.7764 AW             0 LIG     -0.055761
     16 C16        26.0355  108.1836   38.9599 AX             0 LIG     -0.006430
     17 C17        27.2777  107.9970   41.0838 AY             1 LIG     0.133288
     18 C18        28.4830  107.9998   38.8823 AZ             0 LIG     -0.176010
     19 C19        30.2198  102.4322   45.7351 BB             0 LIG     -0.159669
     20 C20        28.6112  107.6291   41.7997 BC             0 LIG     -0.036260
     21 C21        29.2759  108.7657   42.6109 BD             0 LIG     0.036576
     22 N1         29.2610  108.7436   44.0646 BF             0 LIG     -0.187743
     23 N2         27.2501  107.6389   39.6308 BG             2 LIG     -0.192054
     24 S1         26.7063  108.6642   45.7547 BH             0 LIG     -0.197945
     25 S2         30.9250  103.9876   45.1239 BJ             0 LIG     -0.259338
     26 H1         29.7372  113.3060   44.6252 BK             0 LIG     0.162335
     27 H2         27.8152  113.4088   46.2113 BL             0 LIG     0.162335
     28 H3         30.4117  111.1930   43.6246 BM             0 LIG     0.137375
     29 H4         26.5021  111.3495   46.6916 BN             0 LIG     0.176356
     30 H5         26.6878  105.9998   46.7163 BO             0 LIG     0.176356
     31 H6         28.2910  104.1150   46.5027 BP             0 LIG     0.176356
     32 H7         31.0081  106.7189   44.4184 BQ             0 LIG     0.141006
     33 H8         24.6450  108.9997   41.3037 BS             0 LIG     0.046484
     34 H9         23.8647  107.4637   41.5855 BT             0 LIG     0.046484
     35 H10        24.6470  106.5777   39.4331 BU             0 LIG     0.051372
     36 H11        23.8793  108.1179   39.1517 BV             0 LIG     0.051372
     37 H12        26.0081  107.6599   42.8362 BW             0 LIG     0.048966
     38 H13        26.0519  106.3082   41.7343 BX             0 LIG     0.048966
     39 H14        26.0325  107.9067   37.9041 BY             0 LIG     0.095743
     40 H15        26.0522  109.2768   38.9993 BZ             0 LIG     0.095743
     41 H16        27.1725  109.0766   41.1235 CB             0 LIG     0.086415
     42 H17        28.7657  109.0384   39.0594 CI             0 LIG     0.129026
     43 H18        28.3512  107.8653   37.8091 CJ             0 LIG     0.129026
     44 H19        29.3185  107.3600   39.1676 CK             0 LIG     0.129026
     45 H20        30.9100  101.6152   45.5213 CM             0 LIG     0.110256
     46 H21        29.2700  102.2152   45.2441 CN             0 LIG     0.110256
     47 H22        30.0585  102.4650   46.8142 CT             0 LIG     0.110256
     48 H23        28.4036  106.8215   42.5021 CW             0 LIG     0.037623
     49 H24        29.3609  107.2246   41.1272 DA             0 LIG     0.037623
     50 H25        30.2554  108.5296   42.8890 DB             0 LIG     0.084613
     51 H26        29.3109  109.7238   42.0456 DC             0 LIG     0.084613
     52 H27        27.1748  106.6316   39.5838 DD             0 LIG     0.326325
@<TRIPOS>BOND
        1  1  2  2
        2  1  3  1
        3  1  26  1
        4  2  4  1
        5  2  27  1
        6  3  8  2
        7  3  28  1
        8  4  10  2
        9  4  29  1
        10  5  6  1
        11  5  11  2
        12  5  30  1
        13  6  12  2
        14  6  31  1
        15  7  9  2
        16  7  12  1
        17  7  32  1
        18  8  10  1
        19  8  22  1
        20  9  11  1
        21  9  22  1
        22  10  24  1
        23  11  24  1
        24  12  25  1
        25  13  14  1
        26  13  15  1
        27  13  33  1
        28  13  34  1
        29  14  16  1
        30  14  35  1
        31  14  36  1
        32  15  17  1
        33  15  37  1
        34  15  38  1
        35  16  23  1
        36  16  39  1
        37  16  40  1
        38  17  20  1
        39  17  23  1
        40  17  41  1
        41  18  23  1
        42  18  42  1
        43  18  43  1
        44  18  44  1
        45  19  25  1
        46  19  45  1
        47  19  46  1
        48  19  47  1
        49  20  21  1
        50  20  48  1
        51  20  49  1
        52  21  22  1
        53  21  50  1
        54  21  51  1
        55  23  52  1
@<TRIPOS>SUBSTRUCTURE
       1 LIG             1 RESIDUE    0 **** ROOT      0

