@<TRIPOS>MOLECULE
LIG
50 53
SMALL
USER_CHARGES
@<TRIPOS>ATOM
      1 C1         29.0977  112.4239   44.7088 AA             0 LIG     -0.146946
      2 C2         27.9502  112.5095   45.5177 AB             0 LIG     -0.146946
      3 C3         29.5265  111.1739   44.2217 AD             0 LIG     -0.213882
      4 C4         27.2289  111.3440   45.8316 AE             0 LIG     -0.189563
      5 C5         27.6372  106.1458   46.2253 AF             0 LIG     -0.189563
      6 C6         28.5565  105.0860   46.1071 AH             0 LIG     -0.186283
      7 C7         29.9937  106.5113   44.7590 AI             0 LIG     -0.267664
      8 C8         28.8164  109.9915   44.5352 AJ             0 LIG     0.094519
      9 C9         29.0442  107.5546   44.7853 AK             0 LIG     0.094519
     10 C10        27.6525  110.0918   45.3455 AN             0 LIG     0.116195
     11 C11        27.8753  107.3715   45.5680 AO             0 LIG     0.116195
     12 C12        29.7407  105.2674   45.3657 AP             0 LIG     -0.069395
     13 C13        28.1971  105.8901   38.5306 AQ             0 LIG     -0.041121
     14 C14        26.9060  105.1904   40.4803 AV             0 LIG     -0.041121
     15 C15        28.2568  104.4192   38.0693 AW             0 LIG     0.063286
     16 C16        26.9883  103.7311   39.9908 AX             0 LIG     0.063286
     17 C17        28.4621  107.3910   42.0442 AY             0 LIG     -0.016690
     18 C18        29.1393  108.6712   42.5840 AZ             0 LIG     0.028631
     19 C19        28.1658  107.3609   40.5328 BB             0 LIG     -0.059139
     20 N1         29.2728  108.7458   44.0563 BC             0 LIG     -0.187888
     21 N2         28.0918  105.9644   40.0116 BD             0 LIG     -0.035261
     22 N3         27.0788  103.6934   38.5348 BF             0 LIG     -0.795699
     23 F1         31.9632  104.5461   45.4191 BG             0 LIG     -0.251326
     24 F2         30.6786  103.8059   43.8432 BH             0 LIG     -0.251326
     25 F3         30.4464  103.0591   45.8660 BJ             0 LIG     -0.251326
     26 S1         26.6949  108.6655   45.7615 BK             0 LIG     -0.162784
     27 C20        30.7283  104.1363   45.1366 BL             0 LIG     0.697269
     28 H1         29.6575  113.3188   44.4780 BM             0 LIG     0.171877
     29 H2         27.6277  113.4673   45.9038 BN             0 LIG     0.171877
     30 H3         30.4221  111.1233   43.6218 BO             0 LIG     0.150837
     31 H4         26.3555  111.4110   46.4652 BP             0 LIG     0.186066
     32 H5         26.7419  106.0176   46.8184 BQ             0 LIG     0.186066
     33 H6         28.3560  104.1402   46.5909 BS             0 LIG     0.189607
     34 H7         30.9275  106.6390   44.2395 BT             0 LIG     0.149674
     35 H8         29.1003  106.4020   38.1950 BU             0 LIG     0.093433
     36 H9         27.3509  106.4003   38.0680 BV             0 LIG     0.093433
     37 H10        25.9839  105.6588   40.1319 BW             0 LIG     0.093433
     38 H11        26.8502  105.1638   41.5686 BX             0 LIG     0.093433
     39 H12        28.3006  104.3693   36.9793 BY             0 LIG     0.105981
     40 H13        29.1583  103.9237   38.4378 BZ             0 LIG     0.105981
     41 H14        27.8483  103.2175   40.4288 CB             0 LIG     0.105981
     42 H15        26.1037  103.1757   40.3155 CI             0 LIG     0.105981
     43 H16        29.0925  106.5353   42.2845 CJ             0 LIG     0.044237
     44 H17        27.5177  107.2805   42.5677 CK             0 LIG     0.044237
     45 H18        30.1295  108.7359   42.1296 CM             0 LIG     0.093748
     46 H19        28.5911  109.5555   42.2455 CN             0 LIG     0.093748
     47 H20        27.2443  107.8973   40.3077 CT             0 LIG     0.094892
     48 H21        28.9603  107.9006   40.0112 CW             0 LIG     0.094892
     49 H22        26.2166  103.9669   38.0691 DA             0 LIG     0.419755
     50 H23        28.8994  105.4670   40.3579 DB             0 LIG     0.340852
@<TRIPOS>BOND
        1  1  2  2
        2  1  3  1
        3  1  28  1
        4  2  4  1
        5  2  29  1
        6  3  8  2
        7  3  30  1
        8  4  10  2
        9  4  31  1
        10  5  6  1
        11  5  11  2
        12  5  32  1
        13  6  12  2
        14  6  33  1
        15  7  9  2
        16  7  12  1
        17  7  34  1
        18  8  10  1
        19  8  20  1
        20  9  11  1
        21  9  20  1
        22  10  26  1
        23  11  26  1
        24  12  27  1
        25  13  15  1
        26  13  21  1
        27  13  35  1
        28  13  36  1
        29  14  16  1
        30  14  21  1
        31  14  37  1
        32  14  38  1
        33  15  22  1
        34  15  39  1
        35  15  40  1
        36  16  22  1
        37  16  41  1
        38  16  42  1
        39  17  18  1
        40  17  19  1
        41  17  43  1
        42  17  44  1
        43  18  20  1
        44  18  45  1
        45  18  46  1
        46  19  21  1
        47  19  47  1
        48  19  48  1
        49  21  50  1
        50  22  49  1
        51  23  27  1
        52  24  27  1
        53  25  27  1
@<TRIPOS>SUBSTRUCTURE
       1 LIG             1 RESIDUE    0 **** ROOT      0

