@<TRIPOS>MOLECULE
LIG
50 53
SMALL
USER_CHARGES
@<TRIPOS>ATOM
      1 C1         29.0810  112.4466   44.7849 AA             0 LIG     -0.148793
      2 C2         27.9230  112.5104   45.5770 AB             0 LIG     -0.148793
      3 C3         29.5186  111.2096   44.2709 AD             0 LIG     -0.214109
      4 C4         27.2039  111.3346   45.8530 AE             0 LIG     -0.192215
      5 C5         27.6829  106.1798   46.2883 AF             0 LIG     -0.192215
      6 C6         28.6035  105.1208   46.1926 AH             0 LIG     -0.190417
      7 C7         29.9461  106.4582   44.6573 AI             0 LIG     -0.264320
      8 C8         28.8048  110.0111   44.5307 AJ             0 LIG     0.095370
      9 C9         29.0385  107.5424   44.7494 AK             0 LIG     0.095370
     10 C10        27.6440  110.0956   45.3422 AN             0 LIG     0.116137
     11 C11        27.9011  107.3808   45.5805 AO             0 LIG     0.116137
     12 C12        29.7397  105.2583   45.3705 AP             0 LIG     -0.071581
     13 C13        28.7913  106.3205   38.2489 AQ             0 LIG     0.037365
     14 C14        27.1460  105.8898   39.9223 AV             0 LIG     0.037365
     15 C15        28.7015  104.8668   37.7391 AW             0 LIG     0.086222
     16 C16        26.8965  104.4729   39.3479 AX             0 LIG     0.086222
     17 C17        29.2020  107.4136   41.8075 AY             0 LIG     0.011333
     18 C18        29.2566  108.7609   42.5808 AZ             0 LIG     0.026484
     19 C19        28.8603  107.5607   40.3055 BB             0 LIG     0.037611
     20 N1         29.2625  108.7587   44.0563 BC             0 LIG     -0.178062
     21 N2         28.5452  106.2719   39.6900 BD             0 LIG     -0.528710
     22 N3         27.3150  104.3816   37.9263 BF             0 LIG     -0.527743
     23 F1         30.9582  103.8669   43.9511 BG             0 LIG     -0.255693
     24 F2         30.3746  103.0268   45.8580 BH             0 LIG     -0.255693
     25 F3         31.9203  104.5431   45.7680 BJ             0 LIG     -0.255693
     26 S1         26.7051  108.6620   45.7565 BK             0 LIG     -0.174420
     27 C20        30.7659  104.1412   45.2412 BL             0 LIG     0.695255
     28 H1         29.6500  113.3451   44.5868 BM             0 LIG     0.167075
     29 H2         27.5959  113.4576   45.9857 BN             0 LIG     0.167075
     30 H3         30.4347  111.2026   43.7074 BO             0 LIG     0.157041
     31 H4         26.3266  111.3798   46.4795 BP             0 LIG     0.180382
     32 H5         26.8121  106.0790   46.9209 BQ             0 LIG     0.180382
     33 H6         28.4427  104.2097   46.7531 BS             0 LIG     0.183084
     34 H7         30.8431  106.5179   44.0629 BT             0 LIG     0.171935
     35 H8         29.7646  106.7558   38.0275 BU             0 LIG     0.086347
     36 H9         28.0563  106.9560   37.7586 BV             0 LIG     0.086347
     37 H10        26.4960  106.6318   39.4511 BW             0 LIG     0.086347
     38 H11        26.9267  105.9019   40.9945 BX             0 LIG     0.086347
     39 H12        28.9803  104.8136   36.6852 BY             0 LIG     0.119217
     40 H13        29.4002  104.2174   38.2737 BZ             0 LIG     0.119217
     41 H14        27.4361  103.7311   39.9397 CB             0 LIG     0.119217
     42 H15        25.8338  104.2394   39.4202 CI             0 LIG     0.119217
     43 H16        30.1096  106.8250   41.9739 CJ             0 LIG     0.035265
     44 H17        28.4027  106.8207   42.2619 CK             0 LIG     0.035265
     45 H18        30.2377  109.1065   42.7263 CM             0 LIG     0.085093
     46 H19        28.7799  109.5443   41.9362 CN             0 LIG     0.085093
     47 H20        28.0645  108.2848   40.1519 CT             0 LIG     0.068063
     48 H21        29.7108  108.0013   39.8023 CW             0 LIG     0.068063
     49 H22        26.7177  104.9813   37.3743 DA             0 LIG     0.375757
     50 H23        27.2406  103.4289   37.6057 DB             0 LIG     0.375757
@<TRIPOS>BOND
        1  1  2  2
        2  1  3  1
        3  1  28  1
        4  2  4  1
        5  2  29  1
        6  3  8  2
        7  3  30  1
        8  4  10  2
        9  4  31  1
        10  5  6  1
        11  5  11  2
        12  5  32  1
        13  6  12  2
        14  6  33  1
        15  7  9  2
        16  7  12  1
        17  7  34  1
        18  8  10  1
        19  8  20  1
        20  9  11  1
        21  9  20  1
        22  10  26  1
        23  11  26  1
        24  12  27  1
        25  13  15  1
        26  13  21  1
        27  13  35  1
        28  13  36  1
        29  14  16  1
        30  14  21  1
        31  14  37  1
        32  14  38  1
        33  15  22  1
        34  15  39  1
        35  15  40  1
        36  16  22  1
        37  16  41  1
        38  16  42  1
        39  17  18  1
        40  17  19  1
        41  17  43  1
        42  17  44  1
        43  18  20  1
        44  18  45  1
        45  18  46  1
        46  19  21  1
        47  19  47  1
        48  19  48  1
        49  22  49  1
        50  22  50  1
        51  23  27  1
        52  24  27  1
        53  25  27  1
@<TRIPOS>SUBSTRUCTURE
       1 LIG             1 RESIDUE    0 **** ROOT      0

