bCD
                    3D

147154  0  0  1  0            999 V2000
   26.5349  111.2312   50.6941  C    0  0  2  0  0  0
   25.0911  110.7974   50.6356  C    0  0  1  0  0  0
   24.2305  111.7513   49.7212  C    0  0  2  0  0  0
   24.3804  113.2298   50.2813  C    0  0  1  0  0  0
   25.7992  113.5575   50.2532  C    0  0  1  0  0  0
   26.0369  114.9155   50.7919  C    0  0  0  0  0  0
   30.5955  109.6364   47.5759  C    0  0  2  0  0  0
   29.5400  108.6301   48.0777  C    0  0  1  0  0  0
   28.1992  109.3339   48.2616  C    0  0  2  0  0  0
   28.4271  110.5542   49.2415  C    0  0  1  0  0  0
   29.5435  111.5272   48.6464  C    0  0  1  0  0  0
   29.9794  112.6534   49.6158  C    0  0  0  0  0  0
   31.1589  110.6142   42.2211  C    0  0  2  0  0  0
   30.8337  109.1194   42.7467  C    0  0  1  0  0  0
   30.1478  109.1196   44.1722  C    0  0  2  0  0  0
   30.9577  109.9583   45.1443  C    0  0  1  0  0  0
   31.3340  111.3714   44.5268  C    0  0  1  0  0  0
   32.3869  112.2236   45.3191  C    0  0  0  0  0  0
   27.3625  112.5480   39.0647  C    0  0  2  0  0  0
   27.1836  111.1206   39.6515  C    0  0  1  0  0  0
   27.8381  110.9270   40.9985  C    0  0  2  0  0  0
   29.3929  111.3892   40.8575  C    0  0  1  0  0  0
   29.4061  112.7985   40.3303  C    0  0  1  0  0  0
   30.8608  113.3993   40.2773  C    0  0  0  0  0  0
   23.4289  116.1582   40.0724  C    0  0  2  0  0  0
   23.1367  114.7983   39.3874  C    0  0  1  0  0  0
   24.3795  113.7779   39.5493  C    0  0  2  0  0  0
   25.8277  114.3714   39.3541  C    0  0  1  0  0  0
   25.8618  115.7976   40.1288  C    0  0  1  0  0  0
   27.2141  116.5139   39.9847  C    0  0  0  0  0  0
   21.8083  117.0983   45.1341  C    0  0  2  0  0  0
   20.8537  116.5152   44.0475  C    0  0  1  0  0  0
   21.4391  115.7428   42.9324  C    0  0  2  0  0  0
   22.6061  116.6598   42.4281  C    0  0  1  0  0  0
   23.5677  117.1836   43.5166  C    0  0  1  0  0  0
   24.7088  118.1615   43.0871  C    0  0  0  0  0  0
   22.6860  114.8878   49.8886  C    0  0  1  0  0  0
   21.3275  114.5580   49.2767  C    0  0  1  0  0  0
   21.4250  114.8010   47.7565  C    0  0  2  0  0  0
   22.1074  116.1993   47.3320  C    0  0  1  0  0  0
   23.3505  116.4968   48.1200  C    0  0  1  0  0  0
   23.8660  117.9455   48.0402  C    0  0  0  0  0  0
   25.0166  109.3900   50.2798  O    0  0  0  0  0  0
   22.8285  111.3195   49.7044  O    0  0  0  0  0  0
   23.6244  114.0101   49.3452  O    0  0  0  0  0  0
   26.6122  112.6404   51.0761  O    0  0  0  0  0  0
   27.4172  115.1239   51.1356  O    0  0  0  0  0  0
   29.4112  107.5290   47.2150  O    0  0  0  0  0  0
   27.2118  108.4509   48.7274  O    0  0  0  0  0  0
   27.1251  111.1234   49.4160  O    0  0  0  0  0  0
   30.7450  110.7484   48.5011  O    0  0  0  0  0  0
   30.8071  112.1016   50.6296  O    0  0  0  0  0  0
   30.0040  108.3460   41.8924  O    0  0  0  0  0  0
   29.9542  107.7477   44.7024  O    0  0  0  0  0  0
   30.1734  110.1880   46.2921  O    0  0  0  0  0  0
   31.9769  111.2449   43.2006  O    0  0  0  0  0  0
   33.7546  111.9365   45.0289  O    0  0  0  0  0  0
   25.7462  110.7247   39.6705  O    0  0  0  0  0  0
   27.6878  109.6078   41.5854  O    0  0  0  0  0  0
   30.0027  111.4257   42.1297  O    0  0  0  0  0  0
   28.7523  112.8282   39.0377  O    0  0  0  0  0  0
   30.6975  114.8494   40.1105  O    0  0  0  0  0  0
   21.8201  114.2682   39.8396  O    0  0  0  0  0  0
   24.1409  112.6081   38.7515  O    0  0  0  0  0  0
   26.7743  113.4993   39.9683  O    0  0  0  0  0  0
   24.7453  116.6635   39.6452  O    0  0  0  0  0  0
   27.3419  117.6603   40.7923  O    0  0  0  0  0  0
   19.8864  115.6732   44.7275  O    0  0  0  0  0  0
   20.5255  115.4709   41.8419  O    0  0  0  0  0  0
   23.4130  115.8067   41.5008  O    0  0  0  0  0  0
   22.8117  117.9254   44.5269  O    0  0  0  0  0  0
   24.2498  119.5163   42.8365  O    0  0  0  0  0  0
   20.9272  113.1421   49.5834  O    0  0  0  0  0  0
   20.1206  114.6076   47.2513  O    0  0  0  0  0  0
   22.4940  116.1070   45.9665  O    0  0  0  0  0  0
   23.1569  116.1510   49.5229  O    0  0  0  0  0  0
   24.5831  118.2634   49.2226  O    0  0  0  0  0  0
   29.1083  113.1765   50.1491  H    0  0  0  0  0  0
   30.5507  113.3739   49.1948  H    0  0  0  0  0  0
   24.2487  108.9822   50.7781  H    0  0  0  0  0  0
   22.1861  112.0901   49.4248  H    0  0  0  0  0  0
   27.7398  114.2480   50.8844  H    0  0  0  0  0  0
   28.9107  106.8873   47.7743  H    0  0  0  0  0  0
   26.6061  108.9248   49.2878  H    0  0  0  0  0  0
   31.5022  111.6156   50.0801  H    0  0  0  0  0  0
   29.1334  108.8810   41.8916  H    0  0  0  0  0  0
   29.7687  107.9301   45.6686  H    0  0  0  0  0  0
   33.7430  112.3320   44.0879  H    0  0  0  0  0  0
   25.6456  109.7157   39.6065  H    0  0  0  0  0  0
   26.8367  109.4938   42.0632  H    0  0  0  0  0  0
   30.3408  114.9200   39.1661  H    0  0  0  0  0  0
   21.7143  113.3748   39.3945  H    0  0  0  0  0  0
   24.6027  111.8710   39.3480  H    0  0  0  0  0  0
   26.5078  118.1937   40.5678  H    0  0  0  0  0  0
   19.4390  115.2899   43.9301  H    0  0  0  0  0  0
   21.0470  115.0839   41.1147  H    0  0  0  0  0  0
   24.3497  120.0345   43.6933  H    0  0  0  0  0  0
   19.9856  113.1047   49.8453  H    0  0  0  0  0  0
   20.0301  115.1071   46.4115  H    0  0  0  0  0  0
   23.9527  118.0108   49.9645  H    0  0  0  0  0  0
   27.0626  110.5837   51.3934  H    0  0  0  0  0  0
   24.7029  110.9462   51.6505  H    0  0  0  0  0  0
   24.6481  111.8123   48.7893  H    0  0  0  0  0  0
   23.9857  113.3058   51.2907  H    0  0  0  0  0  0
   26.1830  113.5664   49.2081  H    0  0  0  0  0  0
   25.7116  115.5911   49.9791  H    0  0  0  0  0  0
   25.3642  115.0272   51.6349  H    0  0  0  0  0  0
   31.5122  109.0714   47.5090  H    0  0  0  0  0  0
   29.9222  108.3249   49.0640  H    0  0  0  0  0  0
   27.8476  109.7131   47.2967  H    0  0  0  0  0  0
   28.8059  110.2027   50.2241  H    0  0  0  0  0  0
   29.2985  112.0408   47.7179  H    0  0  0  0  0  0
   31.6855  110.5304   41.2436  H    0  0  0  0  0  0
   31.8034  108.5403   42.8645  H    0  0  0  0  0  0
   29.1233  109.5482   44.0374  H    0  0  0  0  0  0
   31.8615  109.3499   45.3713  H    0  0  0  0  0  0
   30.4303  111.9223   44.3218  H    0  0  0  0  0  0
   32.1038  112.1017   46.3722  H    0  0  0  0  0  0
   32.2265  113.2797   45.0227  H    0  0  0  0  0  0
   26.9007  112.5365   38.0334  H    0  0  0  0  0  0
   27.7318  110.4411   38.9246  H    0  0  0  0  0  0
   27.4424  111.6918   41.6702  H    0  0  0  0  0  0
   29.8885  110.7105   40.0904  H    0  0  0  0  0  0
   28.9028  113.4562   40.9728  H    0  0  0  0  0  0
   31.4667  113.1969   41.2074  H    0  0  0  0  0  0
   31.3695  113.0239   39.4055  H    0  0  0  0  0  0
   22.6243  116.8941   39.8275  H    0  0  0  0  0  0
   23.0336  115.0570   38.2973  H    0  0  0  0  0  0
   24.2468  113.5179   40.5986  H    0  0  0  0  0  0
   26.0441  114.5780   38.3213  H    0  0  0  0  0  0
   25.7678  115.5560   41.1811  H    0  0  0  0  0  0
   28.0443  115.8266   40.1260  H    0  0  0  0  0  0
   27.3085  116.6820   38.8939  H    0  0  0  0  0  0
   21.1890  117.7591   45.7422  H    0  0  0  0  0  0
   20.2335  117.3932   43.6862  H    0  0  0  0  0  0
   21.8776  114.8849   43.4516  H    0  0  0  0  0  0
   22.1496  117.5493   42.0128  H    0  0  0  0  0  0
   24.0522  116.2795   43.9669  H    0  0  0  0  0  0
   25.4116  118.1592   43.8964  H    0  0  0  0  0  0
   25.1935  117.7444   42.1701  H    0  0  0  0  0  0
   22.7172  114.7748   50.9043  H    0  0  0  0  0  0
   20.6276  115.2222   49.7169  H    0  0  0  0  0  0
   22.0843  114.0619   47.2850  H    0  0  0  0  0  0
   21.3170  116.9506   47.4509  H    0  0  0  0  0  0
   24.1789  115.9564   47.6455  H    0  0  0  0  0  0
   23.0087  118.6083   47.8698  H    0  0  0  0  0  0
   24.4398  118.0638   47.1127  H    0  0  0  0  0  0
  1  2  1  0  0  0
  1 46  1  0  0  0
  1 50  1  0  0  0
  1101  1  0  0  0
  2  3  1  0  0  0
  2 43  1  0  0  0
  2102  1  0  0  0
  3  4  1  0  0  0
  3 44  1  0  0  0
  3103  1  0  0  0
  4  5  1  0  0  0
  4 45  1  0  0  0
  4104  1  0  0  0
  5  6  1  0  0  0
  5 46  1  0  0  0
  5105  1  0  0  0
  6 47  1  0  0  0
  6106  1  0  0  0
  6107  1  0  0  0
  7  8  1  0  0  0
  7 51  1  0  0  0
  7 55  1  0  0  0
  7108  1  0  0  0
  8  9  1  0  0  0
  8 48  1  0  0  0
  8109  1  0  0  0
  9 10  1  0  0  0
  9 49  1  0  0  0
  9110  1  0  0  0
 10 11  1  0  0  0
 10 50  1  0  0  0
 10111  1  0  0  0
 11 12  1  0  0  0
 11 51  1  0  0  0
 11112  1  0  0  0
 12 52  1  0  0  0
 12 78  1  0  0  0
 12 79  1  0  0  0
 13 14  1  0  0  0
 13 56  1  0  0  0
 13 60  1  0  0  0
 13113  1  0  0  0
 14 15  1  0  0  0
 14 53  1  0  0  0
 14114  1  0  0  0
 15 16  1  0  0  0
 15 54  1  0  0  0
 15115  1  0  0  0
 16 17  1  0  0  0
 16 55  1  0  0  0
 16116  1  0  0  0
 17 18  1  0  0  0
 17 56  1  0  0  0
 17117  1  0  0  0
 18 57  1  0  0  0
 18118  1  0  0  0
 18119  1  0  0  0
 19 20  1  0  0  0
 19 61  1  0  0  0
 19 65  1  0  0  0
 19120  1  0  0  0
 20 21  1  0  0  0
 20 58  1  0  0  0
 20121  1  0  0  0
 21 22  1  0  0  0
 21 59  1  0  0  0
 21122  1  0  0  0
 22 23  1  0  0  0
 22 60  1  0  0  0
 22123  1  0  0  0
 23 24  1  0  0  0
 23 61  1  0  0  0
 23124  1  0  0  0
 24 62  1  0  0  0
 24125  1  0  0  0
 24126  1  0  0  0
 25 26  1  0  0  0
 25 66  1  0  0  0
 25 70  1  0  0  0
 25127  1  0  0  0
 26 27  1  0  0  0
 26 63  1  0  0  0
 26128  1  0  0  0
 27 28  1  0  0  0
 27 64  1  0  0  0
 27129  1  0  0  0
 28 29  1  0  0  0
 28 65  1  0  0  0
 28130  1  0  0  0
 29 30  1  0  0  0
 29 66  1  0  0  0
 29131  1  0  0  0
 30 67  1  0  0  0
 30132  1  0  0  0
 30133  1  0  0  0
 31 32  1  0  0  0
 31 71  1  0  0  0
 31 75  1  0  0  0
 31134  1  0  0  0
 32 33  1  0  0  0
 32 68  1  0  0  0
 32135  1  0  0  0
 33 34  1  0  0  0
 33 69  1  0  0  0
 33136  1  0  0  0
 34 35  1  0  0  0
 34 70  1  0  0  0
 34137  1  0  0  0
 35 36  1  0  0  0
 35 71  1  0  0  0
 35138  1  0  0  0
 36 72  1  0  0  0
 36139  1  0  0  0
 36140  1  0  0  0
 37 38  1  0  0  0
 37 45  1  0  0  0
 37 76  1  0  0  0
 37141  1  0  0  0
 38 39  1  0  0  0
 38 73  1  0  0  0
 38142  1  0  0  0
 39 40  1  0  0  0
 39 74  1  0  0  0
 39143  1  0  0  0
 40 41  1  0  0  0
 40 75  1  0  0  0
 40144  1  0  0  0
 41 42  1  0  0  0
 41 76  1  0  0  0
 41145  1  0  0  0
 42 77  1  0  0  0
 42146  1  0  0  0
 42147  1  0  0  0
 43 80  1  0  0  0
 44 81  1  0  0  0
 47 82  1  0  0  0
 48 83  1  0  0  0
 49 84  1  0  0  0
 52 85  1  0  0  0
 53 86  1  0  0  0
 54 87  1  0  0  0
 57 88  1  0  0  0
 58 89  1  0  0  0
 59 90  1  0  0  0
 62 91  1  0  0  0
 63 92  1  0  0  0
 64 93  1  0  0  0
 67 94  1  0  0  0
 68 95  1  0  0  0
 69 96  1  0  0  0
 72 97  1  0  0  0
 73 98  1  0  0  0
 74 99  1  0  0  0
 77100  1  0  0  0
M  END
> <s_m_entry_id>
15

> <s_m_Source_Path>
/home/emilio/Dropbox/sims/SAMPL9/work/receptor

> <s_m_Source_File>
bCD.mol2

> <i_m_Source_File_Index>
1

$$$$

