PMT1aspS
                    3D
 Schrodinger Suite 2019-4.
 41 43  0  0  1  0            999 V2000
   26.6245  110.3108   45.3470 C   0  0  0  0  0  0
   28.8111  116.2141   42.0847 C   0  0  0  0  0  0
   27.8793  110.0176   45.9083 C   0  0  0  0  0  0
   30.1447  116.1024   42.5207 C   0  0  0  0  0  0
   26.5261  111.1792   44.2406 C   0  0  0  0  0  0
   27.9663  115.0862   42.0963 C   0  0  0  0  0  0
   29.0402  110.5976   45.3666 C   0  0  0  0  0  0
   30.6316  114.8625   42.9735 C   0  0  0  0  0  0
   27.6848  111.7830   43.6974 C   0  0  0  0  0  0
   28.4447  113.8330   42.5523 C   0  0  0  0  0  0
   28.9444  111.4809   44.2719 C   0  0  0  0  0  0
   29.7853  113.7381   43.0029 C   0  0  0  0  0  0
   28.5522  110.7112   40.1538 C   0  0  0  0  0  0
   25.7507  111.7511   39.0152 C   0  0  0  0  0  0
   24.7745  109.9908   40.3898 C   0  0  0  0  0  0
   26.9511  112.0886   41.5701 C   0  0  0  0  0  0
   27.1491  110.7457   40.8096 C   0  0  1  0  0  0
   27.5994  112.7073   42.6347 N   0  0  0  0  0  0
   26.0370  110.5383   39.8251 N   0  3  0  0  0  0
   30.4210  112.2203   43.6464 S   0  0  0  0  0  0
   25.7340  109.8829   45.7837 H   0  0  0  0  0  0
   28.4330  117.1747   41.7634 H   0  0  0  0  0  0
   27.9529  109.3595   46.7647 H   0  0  0  0  0  0
   30.7917  116.9700   42.5228 H   0  0  0  0  0  0
   25.5444  111.4153   43.8645 H   0  0  0  0  0  0
   26.9368  115.2182   41.8006 H   0  0  0  0  0  0
   30.0030  110.3833   45.8056 H   0  0  0  0  0  0
   31.6472  114.7769   43.3292 H   0  0  0  0  0  0
   29.3356  110.8978   40.8922 H   0  0  0  0  0  0
   28.6586  111.4764   39.3813 H   0  0  0  0  0  0
   28.7955  109.7424   39.7149 H   0  0  0  0  0  0
   25.3728  112.5615   39.6422 H   0  0  0  0  0  0
   24.9943  111.5467   38.2527 H   0  0  0  0  0  0
   26.6290  112.1214   38.4879 H   0  0  0  0  0  0
   24.3864  110.6298   41.1862 H   0  0  0  0  0  0
   24.9086  108.9834   40.7875 H   0  0  0  0  0  0
   24.0019  109.9117   39.6214 H   0  0  0  0  0  0
   27.0041  112.8869   40.8319 H   0  0  0  0  0  0
   25.9630  112.1795   42.0137 H   0  0  0  0  0  0
   27.1052  109.9231   41.5244 H   0  0  0  0  0  0
   26.3705  109.8324   39.1802 H   0  0  0  0  0  0
  1  3  2  0  0  0
  1  5  1  0  0  0
  1 21  1  0  0  0
  2  4  2  0  0  0
  2  6  1  0  0  0
  2 22  1  0  0  0
  3  7  1  0  0  0
  3 23  1  0  0  0
  4  8  1  0  0  0
  4 24  1  0  0  0
  5  9  2  0  0  0
  5 25  1  0  0  0
  6 10  2  0  0  0
  6 26  1  0  0  0
  7 11  2  0  0  0
  7 27  1  0  0  0
  8 12  2  0  0  0
  8 28  1  0  0  0
  9 11  1  0  0  0
  9 18  1  0  0  0
 10 12  1  0  0  0
 10 18  1  0  0  0
 11 20  1  0  0  0
 12 20  1  0  0  0
 13 17  1  0  0  0
 13 29  1  0  0  0
 13 30  1  0  0  0
 13 31  1  0  0  0
 14 19  1  0  0  0
 14 32  1  0  0  0
 14 33  1  0  0  0
 14 34  1  0  0  0
 15 19  1  0  0  0
 15 35  1  0  0  0
 15 36  1  0  0  0
 15 37  1  0  0  0
 16 17  1  0  0  0
 16 18  1  0  0  0
 16 38  1  0  0  0
 16 39  1  0  0  0
 17 19  1  0  0  0
 17 40  1  0  0  0
 19 41  1  0  0  0
M  CHG  1  19   1
M  END
> <s_m_entry_id>
464

> <s_m_Source_Path>
/home/emilio/Dropbox/SAMPL9-eglab/mCD/ligsdfs

> <s_m_Source_File>
PMT1aspS.sdf

> <i_m_Source_File_Index>
1

> <r_epik_Ionization_Penalty>
  0.0045

> <r_epik_State_Penalty>
  0.0032

> <i_epik_Tot_Q>
1

> <s_m_job_name>
ligprep_4

> <i_f3d_flags>
0

$$$$
