PMZ1aspS
                    3D
 Schrodinger Suite 2019-4.
 41 43  0  0  1  0            999 V2000
   26.4857  110.5174   45.3955 C   0  0  0  0  0  0
   28.8349  116.1908   42.0983 C   0  0  0  0  0  0
   27.7533  110.1526   46.0398 C   0  0  0  0  0  0
   30.1805  116.0680   42.4211 C   0  0  0  0  0  0
   26.4242  111.4104   44.2731 C   0  0  0  0  0  0
   28.0130  115.0657   42.1379 C   0  0  0  0  0  0
   28.9782  110.5944   45.4267 C   0  0  0  0  0  0
   30.6203  114.8468   42.8913 C   0  0  0  0  0  0
   27.6322  111.8846   43.8022 C   0  0  0  0  0  0
   28.4464  113.8053   42.6237 C   0  0  0  0  0  0
   28.8852  111.5000   44.3593 C   0  0  0  0  0  0
   29.7488  113.7570   43.0238 C   0  0  0  0  0  0
   27.7041  107.9728   40.2688 C   0  0  0  0  0  0
   26.4470  108.4247   38.1002 C   0  0  0  0  0  0
   27.7187  110.8455   40.8700 C   0  0  0  0  0  0
   27.0452  112.1209   41.3994 C   0  0  0  0  0  0
   26.9195  110.2045   39.6680 C   0  0  0  0  0  0
   27.6379  112.6803   42.6539 N   0  0  0  0  0  0
   27.4919  108.9833   39.0672 N   0  3  0  0  0  0
   30.3587  112.2706   43.6136 S   0  0  0  0  0  0
   25.5660  109.9192   45.6798 H   0  0  0  0  0  0
   28.4817  117.1593   41.7155 H   0  0  0  0  0  0
   27.7448  109.3748   46.7665 H   0  0  0  0  0  0
   30.8936  116.8765   42.3781 H   0  0  0  0  0  0
   25.4482  111.6973   43.7883 H   0  0  0  0  0  0
   27.0150  115.2066   41.7956 H   0  0  0  0  0  0
   29.9401  110.2951   45.8607 H   0  0  0  0  0  0
   31.6860  114.8380   43.1882 H   0  0  0  0  0  0
   28.5598  108.3555   40.9047 H   0  0  0  0  0  0
   27.8717  107.0030   39.8944 H   0  0  0  0  0  0
   26.7913  107.9474   40.8552 H   0  0  0  0  0  0
   26.5459  108.9106   37.1518 H   0  0  0  0  0  0
   25.5129  108.6364   38.4801 H   0  0  0  0  0  0
   26.5627  107.4239   37.7500 H   0  0  0  0  0  0
   28.6222  111.1419   40.3838 H   0  0  0  0  0  0
   27.9878  110.1426   41.6709 H   0  0  0  0  0  0
   26.9195  112.9633   40.6924 H   0  0  0  0  0  0
   26.0094  111.9135   41.6258 H   0  0  0  0  0  0
   25.9350  109.8857   40.0114 H   0  0  0  0  0  0
   26.7089  110.9842   38.9384 H   0  0  0  0  0  0
   28.4469  109.1923   38.5721 H   0  0  0  0  0  0
  1  3  2  0  0  0
  1  5  1  0  0  0
  1 21  1  0  0  0
  2  4  2  0  0  0
  2  6  1  0  0  0
  2 22  1  0  0  0
  3  7  1  0  0  0
  3 23  1  0  0  0
  4  8  1  0  0  0
  4 24  1  0  0  0
  5  9  2  0  0  0
  5 25  1  0  0  0
  6 10  2  0  0  0
  6 26  1  0  0  0
  7 11  2  0  0  0
  7 27  1  0  0  0
  8 12  2  0  0  0
  8 28  1  0  0  0
  9 11  1  0  0  0
  9 18  1  0  0  0
 10 12  1  0  0  0
 10 18  1  0  0  0
 11 20  1  0  0  0
 12 20  1  0  0  0
 13 19  1  0  0  0
 13 29  1  0  0  0
 13 30  1  0  0  0
 13 31  1  0  0  0
 14 19  1  0  0  0
 14 32  1  0  0  0
 14 33  1  0  0  0
 14 34  1  0  0  0
 15 16  1  0  0  0
 15 17  1  0  0  0
 15 35  1  0  0  0
 15 36  1  0  0  0
 16 18  1  0  0  0
 16 37  1  0  0  0
 16 38  1  0  0  0
 17 19  1  0  0  0
 17 39  1  0  0  0
 17 40  1  0  0  0
 19 41  1  0  0  0
M  CHG  1  19   1
M  END
> <s_m_entry_id>
459

> <s_m_Source_Path>
/home/emilio/Dropbox/sims/SAMPL9/work/FFEngine/postc/bCDspSf/ligands

> <s_m_Source_File>
PMZ1aspS-q.sdf

> <i_m_Source_File_Index>
1

> <r_epik_Ionization_Penalty>
  0.0034

> <r_epik_State_Penalty>
  0.0024

> <i_epik_Tot_Q>
1

> <s_m_job_name>
ligprep_4

> <i_f3d_flags>
0

$$$$
