TDZNS1aspS
                    3D
 Schrodinger Suite 2019-4.
 52 55  0  0  1  0            999 V2000
   26.6200  110.2022   45.2113 C   0  0  0  0  0  0
   27.8749  109.8974   45.7742 C   0  0  0  0  0  0
   26.5307  111.1190   44.1454 C   0  0  0  0  0  0
   29.0389  110.5065   45.2700 C   0  0  0  0  0  0
   30.6356  114.8638   42.9756 C   0  0  0  0  0  0
   30.1472  116.0985   42.5099 C   0  0  0  0  0  0
   27.9642  115.0765   42.1091 C   0  0  0  0  0  0
   27.6895  111.7511   43.6464 C   0  0  0  0  0  0
   28.4426  113.8383   42.5871 C   0  0  0  0  0  0
   28.9474  111.4408   44.2221 C   0  0  0  0  0  0
   29.7842  113.7446   43.0319 C   0  0  0  0  0  0
   28.8087  116.2044   42.0865 C   0  0  0  0  0  0
   25.8424  108.3180   41.1089 C   0  0  0  0  0  0
   26.7133  107.3628   40.2794 C   0  0  0  0  0  0
   25.5134  109.5931   40.3134 C   0  0  0  0  0  0
   27.9555  108.0800   39.7248 C   0  0  0  0  0  0
   26.7766  110.2800   39.7427 C   0  0  1  0  0  0
   28.6669  109.8561   38.1438 C   0  0  0  0  0  0
   29.0474  119.0512   42.4378 C   0  0  0  0  0  0
   27.6256  110.9983   40.8258 C   0  0  0  0  0  0
   26.9909  112.2994   41.3623 C   0  0  0  0  0  0
   27.5966  112.7166   42.6314 N   0  0  0  0  0  0
   27.5552  109.2821   38.9440 N   0  3  1  0  0  0
   30.4262  112.2207   43.6479 S   0  0  0  0  0  0
   28.1726  117.7485   41.5246 S   0  0  0  0  0  0
   25.7256  109.7425   45.6056 H   0  0  0  0  0  0
   27.9463  109.2062   46.6020 H   0  0  0  0  0  0
   25.5595  111.3624   43.7442 H   0  0  0  0  0  0
   30.0033  110.2765   45.6996 H   0  0  0  0  0  0
   31.6596  114.7830   43.3101 H   0  0  0  0  0  0
   30.8029  116.9559   42.4868 H   0  0  0  0  0  0
   26.9357  115.1756   41.7976 H   0  0  0  0  0  0
   24.9198  107.8131   41.4031 H   0  0  0  0  0  0
   26.3531  108.5697   42.0381 H   0  0  0  0  0  0
   27.0151  106.5108   40.8929 H   0  0  0  0  0  0
   26.1261  106.9448   39.4582 H   0  0  0  0  0  0
   24.8440  109.3311   39.4916 H   0  0  0  0  0  0
   24.9459  110.2819   40.9410 H   0  0  0  0  0  0
   28.6295  108.3596   40.5375 H   0  0  0  0  0  0
   28.5091  107.3903   39.0849 H   0  0  0  0  0  0
   26.4394  111.0447   39.0363 H   0  0  0  0  0  0
   29.5233  110.1285   38.7641 H   0  0  0  0  0  0
   28.3441  110.7426   37.5959 H   0  0  0  0  0  0
   29.0172  109.1277   37.4091 H   0  0  0  0  0  0
   28.5566  120.0101   42.2740 H   0  0  0  0  0  0
   30.0814  119.1400   42.1076 H   0  0  0  0  0  0
   29.0400  118.8423   43.5070 H   0  0  0  0  0  0
   27.8359  110.3313   41.6609 H   0  0  0  0  0  0
   28.5962  111.2604   40.4109 H   0  0  0  0  0  0
   27.0991  113.1044   40.6344 H   0  0  0  0  0  0
   25.9165  112.1642   41.4831 H   0  0  0  0  0  0
   26.8963  108.9413   38.2583 H   0  0  0  0  0  0
  1  2  2  0  0  0
  1  3  1  0  0  0
  1 26  1  0  0  0
  2  4  1  0  0  0
  2 27  1  0  0  0
  3  8  2  0  0  0
  3 28  1  0  0  0
  4 10  2  0  0  0
  4 29  1  0  0  0
  5  6  2  0  0  0
  5 11  1  0  0  0
  5 30  1  0  0  0
  6 12  1  0  0  0
  6 31  1  0  0  0
  7  9  1  0  0  0
  7 12  2  0  0  0
  7 32  1  0  0  0
  8 10  1  0  0  0
  8 22  1  0  0  0
  9 11  2  0  0  0
  9 22  1  0  0  0
 10 24  1  0  0  0
 11 24  1  0  0  0
 12 25  1  0  0  0
 13 14  1  0  0  0
 13 15  1  0  0  0
 13 33  1  0  0  0
 13 34  1  0  0  0
 14 16  1  0  0  0
 14 35  1  0  0  0
 14 36  1  0  0  0
 15 17  1  0  0  0
 15 37  1  0  0  0
 15 38  1  0  0  0
 16 23  1  0  0  0
 16 39  1  0  0  0
 16 40  1  0  0  0
 17 20  1  0  0  0
 17 23  1  0  0  0
 17 41  1  0  0  0
 18 23  1  0  0  0
 18 42  1  0  0  0
 18 43  1  0  0  0
 18 44  1  0  0  0
 19 25  1  0  0  0
 19 45  1  0  0  0
 19 46  1  0  0  0
 19 47  1  0  0  0
 20 21  1  0  0  0
 20 48  1  0  0  0
 20 49  1  0  0  0
 21 22  1  0  0  0
 21 50  1  0  0  0
 21 51  1  0  0  0
 23 52  1  0  0  0
M  CHG  1  23   1
M  END
> <s_m_entry_id>
470

> <s_m_Source_Path>
/home/emilio/Dropbox/SAMPL9-eglab/mCD/ligsdfs

> <s_m_Source_File>
TDZNS1aspS.sdf

> <i_m_Source_File_Index>
1

> <r_epik_Ionization_Penalty>
  0.0017

> <r_epik_State_Penalty>
  0.0011

> <i_epik_Tot_Q>
1

> <s_m_job_name>
ligprep_4

> <i_f3d_flags>
0

$$$$
