TFP1aspS
                    3D
 Schrodinger Suite 2019-4.
 50 53  0  0  1  0            999 V2000
   26.5950  110.4821   45.4795 C   0  0  0  0  0  0
   27.8474  110.2231   46.0652 C   0  0  0  0  0  0
   26.5092  111.2639   44.3105 C   0  0  0  0  0  0
   29.0163  110.7397   45.4759 C   0  0  0  0  0  0
   30.6684  114.8317   42.9487 C   0  0  0  0  0  0
   30.1558  116.0993   42.4974 C   0  0  0  0  0  0
   27.9809  115.0774   42.0903 C   0  0  0  0  0  0
   27.6753  111.8092   43.7181 C   0  0  0  0  0  0
   28.4594  113.8209   42.5338 C   0  0  0  0  0  0
   28.9324  111.5337   44.3158 C   0  0  0  0  0  0
   29.7984  113.7290   42.9764 C   0  0  0  0  0  0
   28.8084  116.2150   42.0835 C   0  0  0  0  0  0
   25.6095  108.6018   38.2870 C   0  0  0  0  0  0
   26.9277  107.7320   40.0856 C   0  0  0  0  0  0
   26.0827  107.4697   37.3518 C   0  0  0  0  0  0
   27.4268  106.5764   39.1906 C   0  0  0  0  0  0
   27.4502  110.7698   40.7930 C   0  0  0  0  0  0
   26.9531  112.0858   41.4750 C   0  0  0  0  0  0
   26.2756  110.0840   40.0523 C   0  0  0  0  0  0
   27.6006  112.7052   42.6354 N   0  0  0  0  0  0
   26.6704  108.9150   39.2527 N   0  0  0  0  0  0
   26.4287  106.2666   38.1415 N   0  3  0  0  0  0
   27.6636  117.4445   40.4704 F   0  0  0  0  0  0
   29.1395  118.5219   41.6314 F   0  0  0  0  0  0
   27.2800  117.9062   42.5510 F   0  0  0  0  0  0
   30.4196  112.2209   43.6458 S   0  0  0  0  0  0
   28.2207  117.5572   41.6748 C   0  0  0  0  0  0
   25.6944  110.1117   45.9522 H   0  0  0  0  0  0
   27.9082  109.6497   46.9792 H   0  0  0  0  0  0
   25.5307  111.4898   43.9184 H   0  0  0  0  0  0
   29.9734  110.5657   45.9427 H   0  0  0  0  0  0
   31.6685  114.7809   43.2881 H   0  0  0  0  0  0
   30.7951  116.9716   42.5092 H   0  0  0  0  0  0
   26.9461  115.2088   41.8102 H   0  0  0  0  0  0
   25.3858  109.4846   37.6835 H   0  0  0  0  0  0
   24.6829  108.3289   38.7989 H   0  0  0  0  0  0
   26.0300  107.4401   40.6351 H   0  0  0  0  0  0
   27.6917  107.9496   40.8322 H   0  0  0  0  0  0
   25.3013  107.2211   36.6306 H   0  0  0  0  0  0
   26.9519  107.7963   36.7761 H   0  0  0  0  0  0
   28.3773  106.8463   38.7253 H   0  0  0  0  0  0
   27.6122  105.6832   39.7902 H   0  0  0  0  0  0
   28.2476  111.0098   40.0908 H   0  0  0  0  0  0
   27.8707  110.0340   41.4641 H   0  0  0  0  0  0
   26.8238  112.7727   40.6585 H   0  0  0  0  0  0
   26.0216  111.9221   41.9290 H   0  0  0  0  0  0
   25.4965  109.8015   40.7613 H   0  0  0  0  0  0
   25.8230  110.8276   39.3964 H   0  0  0  0  0  0
   25.5900  105.9224   38.5859 H   0  0  0  0  0  0
   26.7964  105.5553   37.5254 H   0  0  0  0  0  0
  1  2  2  0  0  0
  1  3  1  0  0  0
  1 28  1  0  0  0
  2  4  1  0  0  0
  2 29  1  0  0  0
  3  8  2  0  0  0
  3 30  1  0  0  0
  4 10  2  0  0  0
  4 31  1  0  0  0
  5  6  2  0  0  0
  5 11  1  0  0  0
  5 32  1  0  0  0
  6 12  1  0  0  0
  6 33  1  0  0  0
  7  9  1  0  0  0
  7 12  2  0  0  0
  7 34  1  0  0  0
  8 10  1  0  0  0
  8 20  1  0  0  0
  9 11  2  0  0  0
  9 20  1  0  0  0
 10 26  1  0  0  0
 11 26  1  0  0  0
 12 27  1  0  0  0
 13 15  1  0  0  0
 13 21  1  0  0  0
 13 35  1  0  0  0
 13 36  1  0  0  0
 14 16  1  0  0  0
 14 21  1  0  0  0
 14 37  1  0  0  0
 14 38  1  0  0  0
 15 22  1  0  0  0
 15 39  1  0  0  0
 15 40  1  0  0  0
 16 22  1  0  0  0
 16 41  1  0  0  0
 16 42  1  0  0  0
 17 18  1  0  0  0
 17 19  1  0  0  0
 17 43  1  0  0  0
 17 44  1  0  0  0
 18 20  1  0  0  0
 18 45  1  0  0  0
 18 46  1  0  0  0
 19 21  1  0  0  0
 19 47  1  0  0  0
 19 48  1  0  0  0
 22 49  1  0  0  0
 22 50  1  0  0  0
 23 27  1  0  0  0
 24 27  1  0  0  0
 25 27  1  0  0  0
M  CHG  1  22   1
M  END
> <s_m_entry_id>
472

> <s_m_Source_Path>
/home/emilio/Dropbox/SAMPL9-eglab/mCD/ligsdfs

> <s_m_Source_File>
TFP1aspS.sdf

> <i_m_Source_File_Index>
1

> <r_epik_Ionization_Penalty>
  0.0078

> <r_epik_State_Penalty>
  0.0420

> <i_epik_Tot_Q>
1

> <s_m_job_name>
ligprep_4

> <i_f3d_flags>
0

$$$$
