PMZ1apsR
                    3D
 Schrodinger Suite 2019-4.
 41 43  0  0  1  0            999 V2000
   29.1630  116.5670   51.0770  C    0  0  0  0  0  0
   22.6383  115.3164   49.4523  C    0  0  0  0  0  0
   29.7549  115.8426   50.0155  C    0  0  0  0  0  0
   22.8734  114.4581   48.4079  C    0  0  0  0  0  0
   27.8362  117.0047   50.9596  C    0  0  0  0  0  0
   23.6299  116.2301   49.8503  C    0  0  0  0  0  0
   29.0285  115.4990   48.8938  C    0  0  0  0  0  0
   24.0646  114.5587   47.6742  C    0  0  0  0  0  0
   27.1531  116.6531   49.8545  C    0  0  0  0  0  0
   24.9206  116.1996   49.3267  C    0  0  0  0  0  0
   27.7212  115.8945   48.7705  C    0  0  0  0  0  0
   25.2178  115.3149   48.2384  C    0  0  0  0  0  0
   27.0028  119.3504   45.1164  C    0  0  0  0  0  0
   25.7384  121.0106   46.2404  C    0  0  0  0  0  0
   26.2877  119.5032   48.9632  C    0  0  0  0  0  0
   25.5550  118.5238   49.9158  C    0  0  0  0  0  0
   26.3816  118.9324   47.4699  C    0  0  0  0  0  0
   25.8633  117.1438   49.7276  N    0  0  0  0  0  0
   26.8016  119.9880   46.4545  N    0  3  0  0  0  0
   26.7034  115.4499   47.3267  S    0  0  0  0  0  0
   29.7683  116.7751   51.9829  H    0  0  0  0  0  0
   21.6760  115.2476   49.9015  H    0  0  0  0  0  0
   30.8136  115.6100   49.9996  H    0  0  0  0  0  0
   22.0776  113.8093   48.0795  H    0  0  0  0  0  0
   27.3388  117.4701   51.7837  H    0  0  0  0  0  0
   23.3784  116.9156   50.5952  H    0  0  0  0  0  0
   29.4082  114.8839   48.0981  H    0  0  0  0  0  0
   24.2021  114.0789   46.7074  H    0  0  0  0  0  0
   27.7695  118.6191   45.1676  H    0  0  0  0  0  0
   27.3646  120.1518   44.4589  H    0  0  0  0  0  0
   26.0696  118.9329   44.7399  H    0  0  0  0  0  0
   25.3161  121.1950   47.1675  H    0  0  0  0  0  0
   24.8325  120.6037   45.6993  H    0  0  0  0  0  0
   26.1275  121.8687   45.7491  H    0  0  0  0  0  0
   25.8167  120.4514   48.8903  H    0  0  0  0  0  0
   27.3116  119.7195   49.2411  H    0  0  0  0  0  0
   25.7712  118.8193   50.9305  H    0  0  0  0  0  0
   24.4922  118.7600   49.7520  H    0  0  0  0  0  0
   27.0464  118.0067   47.5291  H    0  0  0  0  0  0
   25.4015  118.5168   47.1297  H    0  0  0  0  0  0
   27.6189  120.4341   46.7315  H    0  0  0  0  0  0
  1  3  2  0  0  0
  1  5  1  0  0  0
  1 21  1  0  0  0
  2  4  2  0  0  0
  2  6  1  0  0  0
  2 22  1  0  0  0
  3  7  1  0  0  0
  3 23  1  0  0  0
  4  8  1  0  0  0
  4 24  1  0  0  0
  5  9  2  0  0  0
  5 25  1  0  0  0
  6 10  2  0  0  0
  6 26  1  0  0  0
  7 11  2  0  0  0
  7 27  1  0  0  0
  8 12  2  0  0  0
  8 28  1  0  0  0
  9 11  1  0  0  0
  9 18  1  0  0  0
 10 12  1  0  0  0
 10 18  1  0  0  0
 11 20  1  0  0  0
 12 20  1  0  0  0
 13 19  1  0  0  0
 13 29  1  0  0  0
 13 30  1  0  0  0
 13 31  1  0  0  0
 14 19  1  0  0  0
 14 32  1  0  0  0
 14 33  1  0  0  0
 14 34  1  0  0  0
 15 16  1  0  0  0
 15 17  1  0  0  0
 15 35  1  0  0  0
 15 36  1  0  0  0
 16 18  1  0  0  0
 16 37  1  0  0  0
 16 38  1  0  0  0
 17 19  1  0  0  0
 17 39  1  0  0  0
 17 40  1  0  0  0
 19 41  1  0  0  0
M  CHG  1  19   1
M  END
> <i_m_stars>
0

> <s_m_entry_id>
288

> <s_m_Source_Path>
/home/emilio/Dropbox/SAMPL9-eglab/mCD/ligsdfs

> <s_m_Source_File>
PMZ1apsR.sdf

> <i_m_Source_File_Index>
1

> <r_epik_Ionization_Penalty>
  0.0034

> <r_epik_State_Penalty>
  0.0024

> <i_epik_Tot_Q>
1

> <s_m_job_name>
ligprep_4

> <i_f3d_flags>
0

$$$$

