TDZNS1apsR
                    3D
 Schrodinger Suite 2019-4.
 52 55  0  0  1  0            999 V2000
   29.2921  116.2661   51.0263 C   0  0  0  0  0  0
   29.7598  115.4207   49.9945 C   0  0  0  0  0  0
   28.0257  116.8710   50.9218 C   0  0  0  0  0  0
   28.9591  115.1976   48.8500 C   0  0  0  0  0  0
   24.1052  114.5980   47.6399 C   0  0  0  0  0  0
   22.8605  114.5243   48.2942 C   0  0  0  0  0  0
   23.6265  116.1816   49.9212 C   0  0  0  0  0  0
   27.2027  116.6337   49.7972 C   0  0  0  0  0  0
   24.8653  116.2953   49.2500 C   0  0  0  0  0  0
   27.6903  115.7913   48.7632 C   0  0  0  0  0  0
   25.1036  115.4626   48.1274 C   0  0  0  0  0  0
   22.6296  115.3045   49.4435 C   0  0  0  0  0  0
   28.7864  118.6390   47.8832 C   0  0  0  0  0  0
   29.2081  119.8907   47.1075 C   0  0  0  0  0  0
   27.3203  118.3075   47.5785 C   0  0  0  0  0  0
   28.2528  121.0715   47.3788 C   0  0  0  0  0  0
   26.3752  119.4987   47.9048 C   0  0  1  0  0  0
   25.9076  121.8545   47.1884 C   0  0  0  0  0  0
   20.1682  113.7830   49.5203 C   0  0  0  0  0  0
   26.1354  119.7485   49.4351 C   0  0  0  0  0  0
   25.4656  118.5024   50.1002 C   0  0  0  0  0  0
   25.8895  117.1479   49.7175 N   0  0  0  0  0  0
   26.8330  120.6869   47.1268 N   0  3  1  0  0  0
   26.6862  115.4578   47.3454 S   0  0  0  0  0  0
   21.0671  115.1713   50.2628 S   0  0  0  0  0  0
   29.9073  116.4391   51.8962 H   0  0  0  0  0  0
   30.7241  114.9442   50.0774 H   0  0  0  0  0  0
   27.6952  117.4979   51.7349 H   0  0  0  0  0  0
   29.3198  114.5675   48.0558 H   0  0  0  0  0  0
   24.2997  113.9797   46.7753 H   0  0  0  0  0  0
   22.0997  113.8524   47.9229 H   0  0  0  0  0  0
   23.4500  116.7540   50.8144 H   0  0  0  0  0  0
   29.4263  117.7967   47.6108 H   0  0  0  0  0  0
   28.9245  118.7909   48.9540 H   0  0  0  0  0  0
   30.2287  120.1680   47.3824 H   0  0  0  0  0  0
   29.2385  119.6702   46.0399 H   0  0  0  0  0  0
   27.2318  118.0481   46.5212 H   0  0  0  0  0  0
   27.0281  117.3951   48.0988 H   0  0  0  0  0  0
   28.3755  121.4249   48.4000 H   0  0  0  0  0  0
   28.5325  121.9025   46.7321 H   0  0  0  0  0  0
   25.4007  119.2134   47.5002 H   0  0  0  0  0  0
   25.9072  122.3076   48.1764 H   0  0  0  0  0  0
   24.8888  121.5541   46.9429 H   0  0  0  0  0  0
   26.2073  122.6156   46.4688 H   0  0  0  0  0  0
   19.1358  113.7752   49.8690 H   0  0  0  0  0  0
   20.6301  112.8358   49.7995 H   0  0  0  0  0  0
   20.1623  113.8705   48.4332 H   0  0  0  0  0  0
   27.0857  119.9973   49.9219 H   0  0  0  0  0  0
   25.5057  120.6351   49.5608 H   0  0  0  0  0  0
   25.6702  118.5369   51.1603 H   0  0  0  0  0  0
   24.3907  118.6314   49.9777 H   0  0  0  0  0  0
   26.8143  120.3961   46.1639 H   0  0  0  0  0  0
  1  2  2  0  0  0
  1  3  1  0  0  0
  1 26  1  0  0  0
  2  4  1  0  0  0
  2 27  1  0  0  0
  3  8  2  0  0  0
  3 28  1  0  0  0
  4 10  2  0  0  0
  4 29  1  0  0  0
  5  6  2  0  0  0
  5 11  1  0  0  0
  5 30  1  0  0  0
  6 12  1  0  0  0
  6 31  1  0  0  0
  7  9  1  0  0  0
  7 12  2  0  0  0
  7 32  1  0  0  0
  8 10  1  0  0  0
  8 22  1  0  0  0
  9 11  2  0  0  0
  9 22  1  0  0  0
 10 24  1  0  0  0
 11 24  1  0  0  0
 12 25  1  0  0  0
 13 14  1  0  0  0
 13 15  1  0  0  0
 13 33  1  0  0  0
 13 34  1  0  0  0
 14 16  1  0  0  0
 14 35  1  0  0  0
 14 36  1  0  0  0
 15 17  1  0  0  0
 15 37  1  0  0  0
 15 38  1  0  0  0
 16 23  1  0  0  0
 16 39  1  0  0  0
 16 40  1  0  0  0
 17 20  1  0  0  0
 17 23  1  0  0  0
 17 41  1  0  0  0
 18 23  1  0  0  0
 18 42  1  0  0  0
 18 43  1  0  0  0
 18 44  1  0  0  0
 19 25  1  0  0  0
 19 45  1  0  0  0
 19 46  1  0  0  0
 19 47  1  0  0  0
 20 21  1  0  0  0
 20 48  1  0  0  0
 20 49  1  0  0  0
 21 22  1  0  0  0
 21 50  1  0  0  0
 21 51  1  0  0  0
 23 52  1  0  0  0
M  CHG  1  23   1
M  END
> <i_m_stars>
0

> <s_m_entry_id>
618

> <s_m_Source_Path>
/home/emilio/Dropbox/SAMPL9-eglab/mCD/ligsdfs

> <s_m_Source_File>
TDZNS1apsR.sdf

> <i_m_Source_File_Index>
1

> <r_epik_Ionization_Penalty>
  0.0017

> <r_epik_State_Penalty>
  0.0011

> <i_epik_Tot_Q>
1

> <s_m_job_name>
ligprep_4

> <i_f3d_flags>
0

$$$$
