TFP1bpsR
                    3D
 Schrodinger Suite 2019-4.
 50 53  0  0  1  0            999 V2000
   29.4790  116.6090   50.7065 C   0  0  0  0  0  0
   29.8904  115.7243   49.7175 C   0  0  0  0  0  0
   28.1774  117.1071   50.6986 C   0  0  0  0  0  0
   29.0036  115.3564   48.7116 C   0  0  0  0  0  0
   24.2106  114.4330   47.8201 C   0  0  0  0  0  0
   22.9590  114.3910   48.4231 C   0  0  0  0  0  0
   23.5999  116.2313   49.8379 C   0  0  0  0  0  0
   27.2445  116.7382   49.7058 C   0  0  0  0  0  0
   24.8877  116.2854   49.2661 C   0  0  0  0  0  0
   27.7018  115.8629   48.6944 C   0  0  0  0  0  0
   25.1600  115.3734   48.2223 C   0  0  0  0  0  0
   22.6385  115.2992   49.4326 C   0  0  0  0  0  0
   27.0708  120.1191   45.6335 C   0  0  0  0  0  0
   28.0871  121.3368   47.4739 C   0  0  0  0  0  0
   27.3752  121.3044   44.6914 C   0  0  0  0  0  0
   28.3878  122.5073   46.5161 C   0  0  0  0  0  0
   25.9909  119.8822   49.3626 C   0  0  0  0  0  0
   25.5520  118.5340   50.0783 C   0  0  0  0  0  0
   26.5535  119.4536   47.9560 C   0  0  0  0  0  0
   25.8935  117.1650   49.7343 N   0  0  0  0  0  0
   26.9065  120.5623   47.0372 N   0  3  0  0  0  0
   28.5492  122.0440   45.1418 N   0  0  0  0  0  0
   20.6815  116.4799   49.9397 F   0  0  0  0  0  0
   21.4071  115.0618   51.4076 F   0  0  0  0  0  0
   20.4544  114.3577   49.5997 F   0  0  0  0  0  0
   26.6727  115.4452   47.3386 S   0  0  0  0  0  0
   21.2651  115.2918   50.1017 C   0  0  0  0  0  0
   30.1666  116.9059   51.4846 H   0  0  0  0  0  0
   30.8976  115.3345   49.7219 H   0  0  0  0  0  0
   27.9178  117.7814   51.4989 H   0  0  0  0  0  0
   29.3383  114.6891   47.9307 H   0  0  0  0  0  0
   24.4347  113.7424   47.0203 H   0  0  0  0  0  0
   22.2403  113.6577   48.0877 H   0  0  0  0  0  0
   23.3075  116.9128   50.6183 H   0  0  0  0  0  0
   26.1610  119.6369   45.2824 H   0  0  0  0  0  0
   27.8508  119.3649   45.5655 H   0  0  0  0  0  0
   28.9465  120.6815   47.5702 H   0  0  0  0  0  0
   27.9187  121.7548   48.4594 H   0  0  0  0  0  0
   27.5452  120.9705   43.6655 H   0  0  0  0  0  0
   26.5213  121.9791   44.6456 H   0  0  0  0  0  0
   27.5849  123.2416   46.5551 H   0  0  0  0  0  0
   29.2919  123.0421   46.8146 H   0  0  0  0  0  0
   25.1042  120.4864   49.1398 H   0  0  0  0  0  0
   26.6967  120.5156   49.8907 H   0  0  0  0  0  0
   25.9516  118.6320   51.0942 H   0  0  0  0  0  0
   24.4546  118.4591   50.0766 H   0  0  0  0  0  0
   27.4190  118.8096   48.0562 H   0  0  0  0  0  0
   25.8161  118.8293   47.4635 H   0  0  0  0  0  0
   29.4444  121.6081   44.9335 H   0  0  0  0  0  0
   26.1268  121.2073   47.0206 H   0  0  0  0  0  0
  1  2  2  0  0  0
  1  3  1  0  0  0
  1 28  1  0  0  0
  2  4  1  0  0  0
  2 29  1  0  0  0
  3  8  2  0  0  0
  3 30  1  0  0  0
  4 10  2  0  0  0
  4 31  1  0  0  0
  5  6  2  0  0  0
  5 11  1  0  0  0
  5 32  1  0  0  0
  6 12  1  0  0  0
  6 33  1  0  0  0
  7  9  1  0  0  0
  7 12  2  0  0  0
  7 34  1  0  0  0
  8 10  1  0  0  0
  8 20  1  0  0  0
  9 11  2  0  0  0
  9 20  1  0  0  0
 10 26  1  0  0  0
 11 26  1  0  0  0
 12 27  1  0  0  0
 13 15  1  0  0  0
 13 21  1  0  0  0
 13 35  1  0  0  0
 13 36  1  0  0  0
 14 16  1  0  0  0
 14 21  1  0  0  0
 14 37  1  0  0  0
 14 38  1  0  0  0
 15 22  1  0  0  0
 15 39  1  0  0  0
 15 40  1  0  0  0
 16 22  1  0  0  0
 16 41  1  0  0  0
 16 42  1  0  0  0
 17 18  1  0  0  0
 17 19  1  0  0  0
 17 43  1  0  0  0
 17 44  1  0  0  0
 18 20  1  0  0  0
 18 45  1  0  0  0
 18 46  1  0  0  0
 19 21  1  0  0  0
 19 47  1  0  0  0
 19 48  1  0  0  0
 21 50  1  0  0  0
 22 49  1  0  0  0
 23 27  1  0  0  0
 24 27  1  0  0  0
 25 27  1  0  0  0
M  CHG  1  21   1
M  END
> <i_m_stars>
0

> <s_m_entry_id>
621

> <s_m_Source_Path>
/home/emilio/Dropbox/SAMPL9-eglab/mCD/ligsdfs

> <s_m_Source_File>
TFP1bpsR.sdf

> <i_m_Source_File_Index>
1

> <r_epik_Ionization_Penalty>
  0.1004

> <r_epik_State_Penalty>
  1.6660

> <i_epik_Tot_Q>
1

> <s_m_job_name>
ligprep_4

> <i_f3d_flags>
0

$$$$
