TFP1apsR
                    3D
 Schrodinger Suite 2019-4.
 50 53  0  0  1  0            999 V2000
   29.2087  116.1184   51.1026 C   0  0  0  0  0  0
   29.6934  115.2996   50.0645 C   0  0  0  0  0  0
   27.9660  116.7642   50.9742 C   0  0  0  0  0  0
   28.9323  115.1385   48.8918 C   0  0  0  0  0  0
   24.1286  114.5629   47.6682 C   0  0  0  0  0  0
   22.8969  114.4679   48.3397 C   0  0  0  0  0  0
   23.5917  116.2538   49.8520 C   0  0  0  0  0  0
   27.1826  116.5974   49.8154 C   0  0  0  0  0  0
   24.8504  116.3302   49.2164 C   0  0  0  0  0  0
   27.6761  115.7648   48.7782 C   0  0  0  0  0  0
   25.1076  115.4654   48.1219 C   0  0  0  0  0  0
   22.6282  115.3053   49.4453 C   0  0  0  0  0  0
   26.2785  119.9992   45.7198 C   0  0  0  0  0  0
   27.9066  120.8896   47.2400 C   0  0  0  0  0  0
   26.3887  121.2507   44.8248 C   0  0  0  0  0  0
   28.0516  122.1583   46.3729 C   0  0  0  0  0  0
   26.1234  119.6311   49.4761 C   0  0  0  0  0  0
   25.6089  118.4561   50.3272 C   0  0  0  0  0  0
   26.3062  119.2278   48.0006 C   0  0  0  0  0  0
   25.8883  117.1454   49.7154 N   0  0  0  0  0  0
   26.5417  120.3733   47.1135 N   0  0  0  0  0  0
   27.7311  121.8580   44.9592 N   0  3  0  0  0  0
   21.6075  115.0829   51.5346 F   0  0  0  0  0  0
   20.6453  114.0842   49.8757 F   0  0  0  0  0  0
   20.5788  116.2457   50.0258 F   0  0  0  0  0  0
   26.6884  115.4594   47.3459 S   0  0  0  0  0  0
   21.3346  115.1690   50.2322 C   0  0  0  0  0  0
   29.7799  116.2379   52.0114 H   0  0  0  0  0  0
   30.6348  114.7841   50.1707 H   0  0  0  0  0  0
   27.6045  117.3571   51.7990 H   0  0  0  0  0  0
   29.2919  114.5118   48.0892 H   0  0  0  0  0  0
   24.3467  113.9127   46.8373 H   0  0  0  0  0  0
   22.1770  113.7258   48.0220 H   0  0  0  0  0  0
   23.3715  116.8718   50.7095 H   0  0  0  0  0  0
   25.2700  119.5897   45.6259 H   0  0  0  0  0  0
   26.9667  119.2160   45.3947 H   0  0  0  0  0  0
   28.6317  120.1266   46.9489 H   0  0  0  0  0  0
   28.1178  121.1466   48.2789 H   0  0  0  0  0  0
   26.2107  120.9871   43.7796 H   0  0  0  0  0  0
   25.6255  121.9815   45.1006 H   0  0  0  0  0  0
   27.3875  122.9442   46.7386 H   0  0  0  0  0  0
   29.0691  122.5479   46.4376 H   0  0  0  0  0  0
   25.4021  120.4445   49.5350 H   0  0  0  0  0  0
   27.0534  120.0068   49.9018 H   0  0  0  0  0  0
   26.1105  118.5352   51.2900 H   0  0  0  0  0  0
   24.5454  118.5620   50.5534 H   0  0  0  0  0  0
   27.0907  118.4747   47.9028 H   0  0  0  0  0  0
   25.3810  118.7444   47.6858 H   0  0  0  0  0  0
   28.4150  121.2057   44.6018 H   0  0  0  0  0  0
   27.7684  122.7099   44.4174 H   0  0  0  0  0  0
  1  2  2  0  0  0
  1  3  1  0  0  0
  1 28  1  0  0  0
  2  4  1  0  0  0
  2 29  1  0  0  0
  3  8  2  0  0  0
  3 30  1  0  0  0
  4 10  2  0  0  0
  4 31  1  0  0  0
  5  6  2  0  0  0
  5 11  1  0  0  0
  5 32  1  0  0  0
  6 12  1  0  0  0
  6 33  1  0  0  0
  7  9  1  0  0  0
  7 12  2  0  0  0
  7 34  1  0  0  0
  8 10  1  0  0  0
  8 20  1  0  0  0
  9 11  2  0  0  0
  9 20  1  0  0  0
 10 26  1  0  0  0
 11 26  1  0  0  0
 12 27  1  0  0  0
 13 15  1  0  0  0
 13 21  1  0  0  0
 13 35  1  0  0  0
 13 36  1  0  0  0
 14 16  1  0  0  0
 14 21  1  0  0  0
 14 37  1  0  0  0
 14 38  1  0  0  0
 15 22  1  0  0  0
 15 39  1  0  0  0
 15 40  1  0  0  0
 16 22  1  0  0  0
 16 41  1  0  0  0
 16 42  1  0  0  0
 17 18  1  0  0  0
 17 19  1  0  0  0
 17 43  1  0  0  0
 17 44  1  0  0  0
 18 20  1  0  0  0
 18 45  1  0  0  0
 18 46  1  0  0  0
 19 21  1  0  0  0
 19 47  1  0  0  0
 19 48  1  0  0  0
 22 49  1  0  0  0
 22 50  1  0  0  0
 23 27  1  0  0  0
 24 27  1  0  0  0
 25 27  1  0  0  0
M  CHG  1  22   1
M  END
> <i_m_stars>
0

> <s_m_entry_id>
620

> <s_m_Source_Path>
/home/emilio/Dropbox/SAMPL9-eglab/mCD/ligsdfs

> <s_m_Source_File>
TFP1apsR.sdf

> <i_m_Source_File_Index>
1

> <r_epik_Ionization_Penalty>
  0.0078

> <r_epik_State_Penalty>
  0.0420

> <i_epik_Tot_Q>
1

> <s_m_job_name>
ligprep_4

> <i_f3d_flags>
0

$$$$
