@<TRIPOS>MOLECULE
LIG
41 43
SMALL
USER_CHARGES
@<TRIPOS>ATOM
      1 C1         23.6683  106.4187   47.9476 AA             0 LIG     -0.148984
      2 C2         23.0465  107.2609   48.8609 AB             0 LIG     -0.148984
      3 C3         24.6519  106.9176   47.0959 AD             0 LIG     -0.216162
      4 C4         23.4263  108.5964   48.9331 AE             0 LIG     -0.191448
      5 C5         27.5675  111.3538   48.4479 AF             0 LIG     -0.191448
      6 C6         28.9172  111.1723   48.1700 AH             0 LIG     -0.201273
      7 C7         28.3494  109.3806   46.6617 AI             0 LIG     -0.282378
      8 C8         25.0455  108.2715   47.1265 AJ             0 LIG     0.090825
      9 C9         26.9701  109.5521   46.9036 AK             0 LIG     0.090825
     10 C10        24.4202  109.0965   48.0890 AN             0 LIG     0.113170
     11 C11        26.6035  110.5498   47.8350 AO             0 LIG     0.113170
     12 C12        29.3099  110.1784   47.2820 AP             0 LIG     0.139586
     13 C13        22.0384  107.2377   43.2740 AQ             0 LIG     -0.327670
     14 C14        22.9783  107.4948   41.0412 AV             0 LIG     -0.327670
     15 C15        24.7482  108.1445   44.2482 AW             0 LIG     -0.018552
     16 C16        25.8047  109.0991   44.8013 AX             0 LIG     0.030051
     17 C17        24.1565  108.4460   42.9153 AY             0 LIG     0.155353
     18 N1         25.9799  108.8127   46.2101 AZ             0 LIG     -0.186524
     19 N2         23.2651  107.3735   42.4664 BB             0 LIG     0.134459
     20 S1         24.9298  110.7597   48.3115 BC             0 LIG     -0.184949
     21 CL1        30.9838  109.9371   46.9385 BD             0 LIG     -0.163674
     22 H1         23.3860  105.3773   47.8952 BF             0 LIG     0.167367
     23 H2         22.2831  106.8776   49.5216 BG             0 LIG     0.167367
     24 H3         25.0926  106.2121   46.4121 BH             0 LIG     0.144463
     25 H4         22.9583  109.2392   49.6648 BJ             0 LIG     0.182657
     26 H5         27.2717  112.1121   49.1584 BK             0 LIG     0.182657
     27 H6         29.6557  111.7959   48.6540 BL             0 LIG     0.185066
     28 H7         28.7125  108.6321   45.9764 BM             0 LIG     0.159917
     29 H8         21.4788  108.1597   43.2789 BN             0 LIG     0.163775
     30 H9         22.2275  106.9672   44.2946 BO             0 LIG     0.163775
     31 H10        21.3914  106.4765   42.8775 BP             0 LIG     0.163775
     32 H11        22.4490  108.4136   40.8385 BQ             0 LIG     0.163775
     33 H12        22.3703  106.6868   40.6858 BS             0 LIG     0.163775
     34 H13        23.8746  107.5021   40.4505 BT             0 LIG     0.163775
     35 H14        25.3184  107.2213   44.1666 BU             0 LIG     0.042423
     36 H15        24.0155  108.0130   45.0497 BV             0 LIG     0.042423
     37 H16        26.8145  108.8338   44.4714 BW             0 LIG     0.092460
     38 H17        25.7739  110.1190   44.4012 BX             0 LIG     0.092460
     39 H18        23.6511  109.4038   42.9555 BY             0 LIG     0.021392
     40 H19        24.9998  108.5548   42.2499 BZ             0 LIG     0.021392
     41 H20        23.7783  106.4944   42.5827 CB             0 LIG     0.237587
@<TRIPOS>BOND
        1  1  2  2
        2  1  3  1
        3  1  22  1
        4  2  4  1
        5  2  23  1
        6  3  8  2
        7  3  24  1
        8  4  10  2
        9  4  25  1
        10  5  6  1
        11  5  11  2
        12  5  26  1
        13  6  12  2
        14  6  27  1
        15  7  9  2
        16  7  12  1
        17  7  28  1
        18  8  10  1
        19  8  18  1
        20  9  11  1
        21  9  18  1
        22  10  20  1
        23  11  20  1
        24  12  21  1
        25  13  19  1
        26  13  29  1
        27  13  30  1
        28  13  31  1
        29  14  19  1
        30  14  32  1
        31  14  33  1
        32  14  34  1
        33  15  16  1
        34  15  17  1
        35  15  35  1
        36  15  36  1
        37  16  18  1
        38  16  37  1
        39  16  38  1
        40  17  19  1
        41  17  39  1
        42  17  40  1
        43  19  41  1
@<TRIPOS>SUBSTRUCTURE
       1 LIG             1 RESIDUE    0 **** ROOT      0

