@<TRIPOS>MOLECULE
LIG
41 43
SMALL
USER_CHARGES
@<TRIPOS>ATOM
      1 C1            9.403     -0.519     -0.454 AA            1 LIG       -0.150100
      2 C2           16.446      0.301      0.609 AB            1 LIG       -0.150100
      3 C3            9.170      0.847     -0.354 AD            1 LIG       -0.150100
      4 C4           16.327      1.680      0.721 AE            1 LIG       -0.150100
      5 C5           10.602     -1.056      0.009 AF            1 LIG       -0.220762
      6 C6           15.317     -0.508      0.725 AH            1 LIG       -0.220762
      7 C7           10.130      1.667      0.228 AI            1 LIG       -0.190531
      8 C8           15.081      2.243      0.971 AJ            1 LIG       -0.190531
      9 C9           11.608     -0.250      0.585 AK            1 LIG        0.084657
     10 C10          14.034      0.031      0.952 AN            1 LIG        0.084657
     11 C11          11.327      1.129      0.705 AO            1 LIG        0.115853
     12 C12          13.949      1.434      1.099 AP            1 LIG        0.115853
     13 C13          13.199     -2.297     -1.604 AQ            1 LIG       -0.353988
     14 C14          13.186     -5.273      0.987 AV            1 LIG       -0.185375
     15 C15          13.040     -5.264     -1.526 AW            1 LIG       -0.185375
     16 C16          13.016     -2.244      1.045 AX            1 LIG        0.002465
     17 C17          13.444     -3.018     -0.253 AY            1 LIG        0.085935
     18 N1           12.867     -0.772      0.974 AZ            1 LIG       -0.190232
     19 N2           12.787     -4.432     -0.248 BB            1 LIG        0.109280
     20 S1           12.436      2.202      1.537 BC            1 LIG       -0.188456
     21 H1            8.658     -1.162     -0.897 BD            1 LIG        0.166423
     22 H2           17.413     -0.144      0.429 BF            1 LIG        0.166423
     23 H3            8.243      1.268     -0.715 BG            1 LIG        0.166423
     24 H4           17.199      2.310      0.630 BH            1 LIG        0.166423
     25 H5           10.729     -2.120     -0.110 BJ            1 LIG        0.128375
     26 H6           15.480     -1.566      0.625 BK            1 LIG        0.128375
     27 H7            9.930      2.724      0.328 BL            1 LIG        0.178440
     28 H8           15.000      3.315      1.087 BM            1 LIG        0.178440
     29 H9           13.566     -1.271     -1.587 BN            1 LIG        0.122803
     30 H10          12.145     -2.267     -1.877 BO            1 LIG        0.122803
     31 H11          13.732     -2.785     -2.419 BP            1 LIG        0.122803
     32 H12          14.268     -5.411      0.959 BQ            1 LIG        0.123915
     33 H13          12.662     -6.227      0.920 BS            1 LIG        0.123915
     34 H14          12.873     -4.743      1.886 BT            1 LIG        0.123915
     35 H15          14.119     -5.348     -1.660 BU            1 LIG        0.123915
     36 H16          12.563     -4.754     -2.362 BV            1 LIG        0.123915
     37 H17          12.578     -6.242     -1.385 BW            1 LIG        0.123915
     38 H18          12.091     -2.651      1.454 BX            1 LIG        0.090289
     39 H19          13.728     -2.469      1.842 BY            1 LIG        0.090289
     40 H20          14.505     -3.264     -0.199 BZ            1 LIG        0.141962
     41 H21          11.788     -4.285     -0.193 CB            1 LIG        0.213953
@<TRIPOS>BOND
        1  1  3  2
        2  1  5  1
        3  1  21  1
        4  2  4  2
        5  2  6  1
        6  2  22  1
        7  3  7  1
        8  3  23  1
        9  4  8  1
        10  4  24  1
        11  5  9  2
        12  5  25  1
        13  6  10  2
        14  6  26  1
        15  7  11  2
        16  7  27  1
        17  8  12  2
        18  8  28  1
        19  9  11  1
        20  9  18  1
        21  10  12  1
        22  10  18  1
        23  11  20  1
        24  12  20  1
        25  13  17  1
        26  13  29  1
        27  13  30  1
        28  13  31  1
        29  14  19  1
        30  14  32  1
        31  14  33  1
        32  14  34  1
        33  15  19  1
        34  15  35  1
        35  15  36  1
        36  15  37  1
        37  16  17  1
        38  16  18  1
        39  16  38  1
        40  16  39  1
        41  17  19  1
        42  17  40  1
        43  19  41  1
@<TRIPOS>SUBSTRUCTURE
       1 LIG             1 RESIDUE    0 **** ROOT      0
