@<TRIPOS>MOLECULE
LIG
41 43
SMALL
USER_CHARGES
@<TRIPOS>ATOM
      1 C1         23.7964  106.3793   48.0558 AA             0 LIG     -0.150100
      2 C2         29.3076  110.1790   47.2829 AB             0 LIG     -0.150100
      3 C3         23.1709  107.2192   48.9688 AD             0 LIG     -0.150100
      4 C4         28.9146  111.1817   48.1584 AE             0 LIG     -0.150100
      5 C5         24.7405  106.8934   47.1700 AF             0 LIG     -0.220762
      6 C6         28.3488  109.3782   46.6661 AH             0 LIG     -0.220762
      7 C7         23.5092  108.5667   49.0063 AI             0 LIG     -0.190531
      8 C8         27.5651  111.3658   48.4334 AJ             0 LIG     -0.190531
      9 C9         25.0919  108.2601   47.1643 AK             0 LIG     0.084657
     10 C10        26.9685  109.5525   46.9007 AN             0 LIG     0.084657
     11 C11        24.4650  109.0826   48.1275 AO             0 LIG     0.115853
     12 C12        26.6022  110.5566   47.8266 AP             0 LIG     0.115853
     13 C13        25.8032  106.7294   43.8436 AQ             0 LIG     -0.353988
     14 C14        23.7667  109.8548   42.7718 AV             0 LIG     -0.185375
     15 C15        24.1212  107.7009   41.6419 AW             0 LIG     -0.185375
     16 C16        25.7400  109.1255   44.8149 AX             0 LIG     0.002465
     17 C17        24.9788  108.0334   43.9890 AY             1 LIG     0.085935
     18 N1         25.9803  108.8102   46.2058 AZ             0 LIG     -0.190232
     19 N2         24.5130  108.5954   42.7097 BB             0 LIG     0.109280
     20 S1         24.9308  110.7618   48.3134 BC             0 LIG     -0.188456
     21 H1         23.5439  105.3286   48.0283 BD             0 LIG     0.166423
     22 H2         30.3552  110.0220   47.0753 BF             0 LIG     0.166423
     23 H3         22.4364  106.8247   49.6554 BG             0 LIG     0.166423
     24 H4         29.6559  111.8065   48.6371 BH             0 LIG     0.166423
     25 H5         25.1789  106.1931   46.4768 BJ             0 LIG     0.128375
     26 H6         28.7196  108.6216   45.9968 BK             0 LIG     0.128375
     27 H7         23.0407  109.2088   49.7375 BL             0 LIG     0.178440
     28 H8         27.2686  112.1280   49.1393 BM             0 LIG     0.178440
     29 H9         26.1479  106.3386   44.8064 BN             0 LIG     0.122803
     30 H10        26.6930  106.8046   43.2145 BO             0 LIG     0.122803
     31 H11        25.1833  105.9512   43.4242 BP             0 LIG     0.122803
     32 H12        22.8278  109.6430   43.2246 BQ             0 LIG     0.123915
     33 H13        23.6215  110.2963   41.8077 BS             0 LIG     0.123915
     34 H14        24.2255  110.6847   43.2808 BT             0 LIG     0.123915
     35 H15        23.2354  107.2377   42.0089 BU             0 LIG     0.123915
     36 H16        24.8627  106.9709   41.3792 BV             0 LIG     0.123915
     37 H17        23.9012  108.2443   40.7462 BW             0 LIG     0.123915
     38 H18        26.7988  109.1466   44.5915 BX             0 LIG     0.090289
     39 H19        25.6243  110.1394   44.4802 BY             0 LIG     0.090289
     40 H20        24.0605  107.8170   44.5036 BZ             0 LIG     0.141962
     41 H21        25.4069  108.9130   42.3924 CB             0 LIG     0.213953
@<TRIPOS>BOND
        1  1  3  2
        2  1  5  1
        3  1  21  1
        4  2  4  2
        5  2  6  1
        6  2  22  1
        7  3  7  1
        8  3  23  1
        9  4  8  1
        10  4  24  1
        11  5  9  2
        12  5  25  1
        13  6  10  2
        14  6  26  1
        15  7  11  2
        16  7  27  1
        17  8  12  2
        18  8  28  1
        19  9  11  1
        20  9  18  1
        21  10  12  1
        22  10  18  1
        23  11  20  1
        24  12  20  1
        25  13  17  1
        26  13  29  1
        27  13  30  1
        28  13  31  1
        29  14  19  1
        30  14  32  1
        31  14  33  1
        32  14  34  1
        33  15  19  1
        34  15  35  1
        35  15  36  1
        36  15  37  1
        37  16  17  1
        38  16  18  1
        39  16  38  1
        40  16  39  1
        41  17  19  1
        42  17  40  1
        43  19  41  1
@<TRIPOS>SUBSTRUCTURE
       1 LIG             1 RESIDUE    0 **** ROOT      0

