PMZ1aspR
                    3D
 Schrodinger Suite 2019-4.
 41 43  0  0  1  0            999 V2000
   23.7330  106.3646   47.5945  C    0  0  0  0  0  0
   29.2929  110.1395   47.2437  C    0  0  0  0  0  0
   23.0215  107.1607   48.4773  C    0  0  0  0  0  0
   28.9251  111.1963   48.1095  C    0  0  0  0  0  0
   24.7072  106.9062   46.8557  C    0  0  0  0  0  0
   28.3347  109.4170   46.5946  C    0  0  0  0  0  0
   23.3489  108.5225   48.6645  C    0  0  0  0  0  0
   27.6112  111.3437   48.4658  C    0  0  0  0  0  0
   24.9967  108.2921   46.9568  C    0  0  0  0  0  0
   26.9993  109.6196   46.8856  C    0  0  0  0  0  0
   24.3506  109.1040   47.8468  C    0  0  0  0  0  0
   26.6160  110.5590   47.8304  C    0  0  0  0  0  0
   22.9633  107.4509   41.9634  C    0  0  0  0  0  0
   24.5525  108.3619   40.2303  C    0  0  0  0  0  0
   25.4391  108.0943   43.9097  C    0  0  0  0  0  0
   25.8271  109.2413   44.8209  C    0  0  0  0  0  0
   25.1109  108.6528   42.5666  C    0  0  0  0  0  0
   26.0489  108.8554   46.2467  N    0  0  0  0  0  0
   24.4649  107.6869   41.6069  N    0  3  0  0  0  0
   24.8772  110.7562   48.3129  S    0  0  0  0  0  0
   23.5899  105.2794   47.5791  H    0  0  0  0  0  0
   30.2681  110.0791   46.9268  H    0  0  0  0  0  0
   22.2246  106.7157   49.1343  H    0  0  0  0  0  0
   29.6682  111.8441   48.5191  H    0  0  0  0  0  0
   25.3372  106.3332   46.1927  H    0  0  0  0  0  0
   28.7159  108.6864   45.9557  H    0  0  0  0  0  0
   22.8367  109.1504   49.4504  H    0  0  0  0  0  0
   27.3670  112.0871   49.2217  H    0  0  0  0  0  0
   22.6182  108.3603   42.4468  H    0  0  0  0  0  0
   22.7954  106.5539   42.5485  H    0  0  0  0  0  0
   22.4187  107.2798   41.0148  H    0  0  0  0  0  0
   25.5645  108.6415   40.0203  H    0  0  0  0  0  0
   23.9716  109.2831   40.2914  H    0  0  0  0  0  0
   24.1848  107.6463   39.4873  H    0  0  0  0  0  0
   26.3382  107.4789   43.6912  H    0  0  0  0  0  0
   24.5497  107.5026   44.2876  H    0  0  0  0  0  0
   26.7508  109.6933   44.4403  H    0  0  0  0  0  0
   25.0918  110.0051   44.8251  H    0  0  0  0  0  0
   24.5023  109.5064   42.6181  H    0  0  0  0  0  0
   26.0790  109.0126   42.1379  H    0  0  0  0  0  0
   24.9933  106.8305   41.5427  H    0  0  0  0  0  0
  1  3  2  0  0  0
  1  5  1  0  0  0
  1 21  1  0  0  0
  2  4  2  0  0  0
  2  6  1  0  0  0
  2 22  1  0  0  0
  3  7  1  0  0  0
  3 23  1  0  0  0
  4  8  1  0  0  0
  4 24  1  0  0  0
  5  9  2  0  0  0
  5 25  1  0  0  0
  6 10  2  0  0  0
  6 26  1  0  0  0
  7 11  2  0  0  0
  7 27  1  0  0  0
  8 12  2  0  0  0
  8 28  1  0  0  0
  9 11  1  0  0  0
  9 18  1  0  0  0
 10 12  1  0  0  0
 10 18  1  0  0  0
 11 20  1  0  0  0
 12 20  1  0  0  0
 13 19  1  0  0  0
 13 29  1  0  0  0
 13 30  1  0  0  0
 13 31  1  0  0  0
 14 19  1  0  0  0
 14 32  1  0  0  0
 14 33  1  0  0  0
 14 34  1  0  0  0
 15 16  1  0  0  0
 15 17  1  0  0  0
 15 35  1  0  0  0
 15 36  1  0  0  0
 16 18  1  0  0  0
 16 37  1  0  0  0
 16 38  1  0  0  0
 17 19  1  0  0  0
 17 39  1  0  0  0
 17 40  1  0  0  0
 19 41  1  0  0  0
M  CHG  1  19   1
M  END
> <s_m_entry_id>
206

> <s_m_Source_Path>
/home/emilio/Dropbox/SAMPL9-eglab/mCD/ligsdfs

> <s_m_Source_File>
PMZ1aspR.sdf

> <i_m_Source_File_Index>
1

> <r_epik_Ionization_Penalty>
  0.0034

> <r_epik_State_Penalty>
  0.0024

> <i_epik_Tot_Q>
1

> <s_m_job_name>
ligprep_4

> <i_f3d_flags>
0

$$$$

