PMZ1aspR
                    3D
 Structure written by MMmdl.
 41 43  0  0  1  0            999 V2000
   23.7330  106.3646   47.5945 C   0  0  0  0  0  0
   29.2929  110.1395   47.2437 C   0  0  0  0  0  0
   23.0215  107.1607   48.4773 C   0  0  0  0  0  0
   28.9251  111.1963   48.1095 C   0  0  0  0  0  0
   24.7072  106.9062   46.8557 C   0  0  0  0  0  0
   28.3347  109.4170   46.5946 C   0  0  0  0  0  0
   23.3489  108.5225   48.6645 C   0  0  0  0  0  0
   27.6112  111.3437   48.4658 C   0  0  0  0  0  0
   24.9967  108.2921   46.9568 C   0  0  0  0  0  0
   26.9993  109.6196   46.8856 C   0  0  0  0  0  0
   24.3506  109.1040   47.8468 C   0  0  0  0  0  0
   26.6160  110.5590   47.8304 C   0  0  0  0  0  0
   22.1809  108.6051   42.3975 C   0  0  0  0  0  0
   23.7831  108.7526   40.4557 C   0  0  0  0  0  0
   24.9235  108.3032   44.0464 C   0  0  0  0  0  0
   25.8271  109.2413   44.8209 C   0  0  0  0  0  0
   24.6804  108.8926   42.6985 C   0  0  0  0  0  0
   26.0489  108.8554   46.2467 N   0  0  0  0  0  0
   23.6046  108.2201   41.8851 N   0  3  0  0  0  0
   24.8772  110.7562   48.3129 S   0  0  0  0  0  0
   23.5899  105.2794   47.5791 H   0  0  0  0  0  0
   30.2681  110.0791   46.9268 H   0  0  0  0  0  0
   22.2246  106.7157   49.1343 H   0  0  0  0  0  0
   29.6682  111.8441   48.5191 H   0  0  0  0  0  0
   25.3372  106.3332   46.1927 H   0  0  0  0  0  0
   28.7159  108.6864   45.9557 H   0  0  0  0  0  0
   22.8367  109.1504   49.4504 H   0  0  0  0  0  0
   27.3670  112.0871   49.2217 H   0  0  0  0  0  0
   22.2718  109.5951   42.8349 H   0  0  0  0  0  0
   21.7506  107.8691   43.0670 H   0  0  0  0  0  0
   21.5052  108.6240   41.5207 H   0  0  0  0  0  0
   24.7925  108.6051   40.1305 H   0  0  0  0  0  0
   23.6131  109.8293   40.4950 H   0  0  0  0  0  0
   23.0838  108.2097   39.8110 H   0  0  0  0  0  0
   25.4840  107.3768   43.7965 H   0  0  0  0  0  0
   23.9258  108.1222   44.5524 H   0  0  0  0  0  0
   26.8020  109.2803   44.3205 H   0  0  0  0  0  0
   25.4485  110.2316   44.8309 H   0  0  0  0  0  0
   24.4579  109.9177   42.7363 H   0  0  0  0  0  0
   25.6548  108.8276   42.1538 H   0  0  0  0  0  0
   23.7511  107.2234   41.8423 H   0  0  0  0  0  0
  1  3  2  0  0  0
  1  5  1  0  0  0
  1 21  1  0  0  0
  2  4  2  0  0  0
  2  6  1  0  0  0
  2 22  1  0  0  0
  3  7  1  0  0  0
  3 23  1  0  0  0
  4  8  1  0  0  0
  4 24  1  0  0  0
  5  9  2  0  0  0
  5 25  1  0  0  0
  6 10  2  0  0  0
  6 26  1  0  0  0
  7 11  2  0  0  0
  7 27  1  0  0  0
  8 12  2  0  0  0
  8 28  1  0  0  0
  9 11  1  0  0  0
  9 18  1  0  0  0
 10 12  1  0  0  0
 10 18  1  0  0  0
 11 20  1  0  0  0
 12 20  1  0  0  0
 13 19  1  0  0  0
 13 29  1  0  0  0
 13 30  1  0  0  0
 13 31  1  0  0  0
 14 19  1  0  0  0
 14 32  1  0  0  0
 14 33  1  0  0  0
 14 34  1  0  0  0
 15 16  1  0  0  0
 15 17  1  0  0  0
 15 35  1  0  0  0
 15 36  1  0  0  0
 16 18  1  0  0  0
 16 37  1  0  0  0
 16 38  1  0  0  0
 17 19  1  0  0  0
 17 39  1  0  0  0
 17 40  1  0  0  0
 19 41  1  0  0  0
M  CHG  1  19   1
M  END
> <s_m_entry_id>
565

> <s_m_entry_name>
PMZ1aspR-q.1

> <s_m_Source_Path>
/u1/users/egallicchio/Dropbox/sims/SAMPL9/work/FFEngine/postc/mCDspRf/ligands

> <s_m_Source_File>
PMZ1aspR-q.sdf

> <i_m_Source_File_Index>
1

> <r_epik_Ionization_Penalty>
  0.0034

> <r_epik_State_Penalty>
  0.0024

> <i_epik_Tot_Q>
1

> <s_m_job_name>
ligprep_4

> <chiral flag>
1

> <version>
0

> <i_f3d_flags>
0

> <s_m_subgroup_title>
mCDq->spR d_copy1

> <s_m_subgroupid>
mCDq->spR_copy2

> <b_m_subgroup_collapsed>
0

$$$$
