@<TRIPOS>MOLECULE
LIG
41 43
SMALL
USER_CHARGES
@<TRIPOS>ATOM
      1 C1         23.7330  106.3646   47.5945 PA             0 LIG     -0.151978
      2 C2         29.2929  110.1395   47.2437 PB             0 LIG     -0.151978
      3 C3         23.0215  107.1607   48.4773 PD             0 LIG     -0.151978
      4 C4         28.9251  111.1963   48.1095 PE             0 LIG     -0.151978
      5 C5         24.7072  106.9062   46.8557 PF             0 LIG     -0.221382
      6 C6         28.3347  109.4170   46.5946 PH             0 LIG     -0.221382
      7 C7         23.3489  108.5225   48.6645 PI             0 LIG     -0.192007
      8 C8         27.6112  111.3437   48.4658 PJ             0 LIG     -0.192007
      9 C9         24.9967  108.2921   46.9568 PK             0 LIG     0.086899
     10 C10        26.9993  109.6196   46.8856 PN             0 LIG     0.086899
     11 C11        24.3506  109.1040   47.8468 PO             0 LIG     0.115779
     12 C12        26.6160  110.5590   47.8304 PP             0 LIG     0.115779
     13 C13        22.1809  108.6051   42.3975 PQ             0 LIG     -0.319173
     14 C14        23.7831  108.7526   40.4557 PV             0 LIG     -0.319173
     15 C15        24.9235  108.3032   44.0464 PW             0 LIG     -0.018118
     16 C16        25.8271  109.2413   44.8209 PX             0 LIG     0.036275
     17 C17        24.6804  108.8926   42.6985 PY             0 LIG     0.012268
     18 N1         26.0489  108.8554   46.2467 PZ             0 LIG     -0.191498
     19 N2         23.6046  108.2201   41.8851 QB             0 LIG     0.153200
     20 S1         24.8772  110.7562   48.3129 QC             0 LIG     -0.201542
     21 H1         23.5899  105.2794   47.5791 QD             0 LIG     0.160898
     22 H2         30.2681  110.0791   46.9268 QF             0 LIG     0.160898
     23 H3         22.2246  106.7157   49.1343 QG             0 LIG     0.160898
     24 H4         29.6682  111.8441   48.5191 QH             0 LIG     0.160898
     25 H5         25.3372  106.3332   46.1927 QJ             0 LIG     0.134456
     26 H6         28.7159  108.6864   45.9557 QK             0 LIG     0.134456
     27 H7         22.8367  109.1504   49.4504 QL             0 LIG     0.174337
     28 H8         27.3670  112.0871   49.2217 QM             0 LIG     0.174337
     29 H9         22.2718  109.5951   42.8349 QN             0 LIG     0.158404
     30 H10        21.7506  107.8691   43.0670 QO             0 LIG     0.158404
     31 H11        21.5052  108.6240   41.5207 QP             0 LIG     0.158404
     32 H12        24.7925  108.6051   40.1305 QQ             0 LIG     0.158404
     33 H13        23.6131  109.8293   40.4950 QS             0 LIG     0.158404
     34 H14        23.0838  108.2097   39.8110 QT             0 LIG     0.158404
     35 H15        25.4840  107.3768   43.7965 QU             0 LIG     0.041463
     36 H16        23.9258  108.1222   44.5524 QV             0 LIG     0.041463
     37 H17        26.8020  109.2803   44.3205 QW             0 LIG     0.085391
     38 H18        25.4485  110.2316   44.8309 QX             0 LIG     0.085391
     39 H19        24.4579  109.9177   42.7363 QY             0 LIG     0.073022
     40 H20        25.6548  108.8276   42.1538 QZ             0 LIG     0.073022
     41 H21        23.7511  107.2234   41.8423 RB             0 LIG     0.265740
@<TRIPOS>BOND
        1  1  3  2
        2  1  5  1
        3  1  21  1
        4  2  4  2
        5  2  6  1
        6  2  22  1
        7  3  7  1
        8  3  23  1
        9  4  8  1
        10  4  24  1
        11  5  9  2
        12  5  25  1
        13  6  10  2
        14  6  26  1
        15  7  11  2
        16  7  27  1
        17  8  12  2
        18  8  28  1
        19  9  11  1
        20  9  18  1
        21  10  12  1
        22  10  18  1
        23  11  20  1
        24  12  20  1
        25  13  19  1
        26  13  29  1
        27  13  30  1
        28  13  31  1
        29  14  19  1
        30  14  32  1
        31  14  33  1
        32  14  34  1
        33  15  16  1
        34  15  17  1
        35  15  35  1
        36  15  36  1
        37  16  18  1
        38  16  37  1
        39  16  38  1
        40  17  19  1
        41  17  39  1
        42  17  40  1
        43  19  41  1
@<TRIPOS>SUBSTRUCTURE
       1 LIG             1 RESIDUE    0 **** ROOT      0

