@<TRIPOS>MOLECULE
LIG
52 55
SMALL
USER_CHARGES
@<TRIPOS>ATOM
      1 C1         23.7484  106.3922   48.0189 AA             0 LIG     -0.151259
      2 C2         23.3226  107.1690   49.0892 AB             0 LIG     -0.151259
      3 C3         24.5946  106.9369   47.0548 AD             0 LIG     -0.219304
      4 C4         23.7259  108.4963   49.1778 AE             0 LIG     -0.194592
      5 C5         27.5850  111.1473   48.6482 AF             0 LIG     -0.194592
      6 C6         28.9306  111.0112   48.3288 AH             0 LIG     -0.194592
      7 C7         28.3389  109.4777   46.5651 AI             0 LIG     -0.277127
      8 C8         25.0453  108.2715   47.1283 AJ             0 LIG     0.085655
      9 C9         26.9659  109.5815   46.8741 AK             0 LIG     0.085655
     10 C10        24.5631  109.0489   48.2056 AN             0 LIG     0.112307
     11 C11        26.6114  110.4539   47.9270 AO             0 LIG     0.112307
     12 C12        29.3117  110.1788   47.2822 AP             0 LIG     0.162844
     13 C13        22.0051  108.6363   46.4498 AQ             0 LIG     -0.032521
     14 C14        21.6596  107.1528   46.6638 AV             0 LIG     -0.034488
     15 C15        23.3950  108.7635   45.8181 AW             0 LIG     -0.055761
     16 C16        21.7800  106.3751   45.3435 AX             0 LIG     -0.006430
     17 C17        23.5529  107.9294   44.5229 AY             1 LIG     0.133288
     18 C18        23.2415  105.6288   43.5312 AZ             0 LIG     -0.176010
     19 C19        31.9880  110.2425   48.4134 BB             0 LIG     -0.159669
     20 C20        25.0122  108.0171   44.0227 BC             0 LIG     -0.036260
     21 C21        25.8499  109.0735   44.7927 BD             0 LIG     0.036576
     22 N1         25.9783  108.8119   46.2093 BF             0 LIG     -0.187743
     23 N2         23.1412  106.4938   44.7377 BG             2 LIG     -0.192054
     24 S1         24.9291  110.7603   48.3120 BH             0 LIG     -0.197945
     25 S2         31.0328  110.0388   46.8851 BJ             0 LIG     -0.259338
     26 H1         23.4261  105.3647   47.9360 BK             0 LIG     0.162335
     27 H2         22.6682  106.7492   49.8389 BL             0 LIG     0.162335
     28 H3         24.8842  106.2811   46.2524 BM             0 LIG     0.137375
     29 H4         23.3663  109.1043   49.9955 BN             0 LIG     0.176356
     30 H5         27.2978  111.8138   49.4487 BO             0 LIG     0.176356
     31 H6         29.6720  111.5611   48.8901 BP             0 LIG     0.176356
     32 H7         28.6729  108.8450   45.7611 BQ             0 LIG     0.141006
     33 H8         21.2498  109.1133   45.8064 BS             0 LIG     0.046484
     34 H9         21.9797  109.1797   47.4049 BT             0 LIG     0.046484
     35 H10        22.3337  106.7373   47.4216 BU             0 LIG     0.051372
     36 H11        20.6436  107.0736   47.0649 BV             0 LIG     0.051372
     37 H12        23.5544  109.8265   45.6344 BW             0 LIG     0.048966
     38 H13        24.1535  108.4630   46.5455 BX             0 LIG     0.048966
     39 H14        21.5634  105.3241   45.5520 BY             0 LIG     0.095743
     40 H15        21.0207  106.7342   44.6346 BZ             0 LIG     0.095743
     41 H16        22.8823  108.3479   43.7648 CB             0 LIG     0.086415
     42 H17        22.6563  106.0444   42.7088 CI             0 LIG     0.129026
     43 H18        22.8735  104.6276   43.7564 CJ             0 LIG     0.129026
     44 H19        24.2703  105.5021   43.2099 CK             0 LIG     0.129026
     45 H20        33.0503  110.3159   48.1806 CM             0 LIG     0.110256
     46 H21        31.8442  109.3893   49.0761 CN             0 LIG     0.110256
     47 H22        31.6848  111.1527   48.9303 CT             0 LIG     0.110256
     48 H23        25.5078  107.0488   44.1150 CW             0 LIG     0.037623
     49 H24        25.0201  108.2461   42.9667 DA             0 LIG     0.037623
     50 H25        26.8889  108.8490   44.5230 DB             0 LIG     0.084613
     51 H26        25.6810  110.1174   44.4974 DC             0 LIG     0.084613
     52 H27        23.7934  106.1358   45.4435 DD             0 LIG     0.326325
@<TRIPOS>BOND
        1  1  2  2
        2  1  3  1
        3  1  26  1
        4  2  4  1
        5  2  27  1
        6  3  8  2
        7  3  28  1
        8  4  10  2
        9  4  29  1
        10  5  6  1
        11  5  11  2
        12  5  30  1
        13  6  12  2
        14  6  31  1
        15  7  9  2
        16  7  12  1
        17  7  32  1
        18  8  10  1
        19  8  22  1
        20  9  11  1
        21  9  22  1
        22  10  24  1
        23  11  24  1
        24  12  25  1
        25  13  14  1
        26  13  15  1
        27  13  33  1
        28  13  34  1
        29  14  16  1
        30  14  35  1
        31  14  36  1
        32  15  17  1
        33  15  37  1
        34  15  38  1
        35  16  23  1
        36  16  39  1
        37  16  40  1
        38  17  20  1
        39  17  23  1
        40  17  41  1
        41  18  23  1
        42  18  42  1
        43  18  43  1
        44  18  44  1
        45  19  25  1
        46  19  45  1
        47  19  46  1
        48  19  47  1
        49  20  21  1
        50  20  48  1
        51  20  49  1
        52  21  22  1
        53  21  50  1
        54  21  51  1
        55  23  52  1
@<TRIPOS>SUBSTRUCTURE
       1 LIG             1 RESIDUE    0 **** ROOT      0

