@<TRIPOS>MOLECULE
LIG
52 55
SMALL
USER_CHARGES
@<TRIPOS>ATOM
      1 C1         23.5913  106.4499   47.8993 AA             0 LIG     -0.151741
      2 C2         23.1657  107.2225   48.9717 AB             0 LIG     -0.151741
      3 C3         24.4889  106.9786   46.9725 AD             0 LIG     -0.220252
      4 C4         23.6196  108.5302   49.0990 AE             0 LIG     -0.194616
      5 C5         27.5841  111.1362   48.6563 AF             0 LIG     -0.194616
      6 C6         28.9301  111.0025   48.3366 AH             0 LIG     -0.194616
      7 C7         28.3385  109.4838   46.5602 AI             0 LIG     -0.276550
      8 C8         24.9949  108.2907   47.0881 AJ             0 LIG     0.084603
      9 C9         26.9646  109.5787   46.8742 AK             0 LIG     0.084603
     10 C10        24.5094  109.0671   48.1637 AN             0 LIG     0.112404
     11 C11        26.6114  110.4474   47.9306 AO             0 LIG     0.112404
     12 C12        29.3102  110.1794   47.2828 AP             0 LIG     0.163041
     13 C13        22.0150  108.4705   43.6482 AQ             0 LIG     -0.029878
     14 C14        21.7494  107.1396   42.9163 AV             0 LIG     -0.034345
     15 C15        23.1225  109.2506   42.9299 AW             0 LIG     -0.054555
     16 C16        23.0155  106.3015   42.6302 AX             0 LIG     0.011138
     17 C17        24.3656  108.3678   42.7586 AY             1 LIG     0.149935
     18 C18        25.1765  106.2714   41.5073 AZ             0 LIG     -0.244054
     19 C19        31.9783  110.1879   48.4230 BB             0 LIG     -0.160589
     20 C20        24.8279  108.1222   44.1762 BC             0 LIG     -0.033239
     21 C21        25.7885  109.0973   44.8278 BD             0 LIG     0.039575
     22 N1         25.9792  108.8100   46.2071 BF             0 LIG     -0.187004
     23 N2         24.0387  107.1314   41.9592 BG             1 LIG     -0.070769
     24 S1         24.9298  110.7610   48.3127 BH             0 LIG     -0.197900
     25 S2         31.0303  110.0441   46.8832 BJ             0 LIG     -0.258446
     26 H1         23.2278  105.4401   47.7845 BK             0 LIG     0.161610
     27 H2         22.4704  106.8174   49.6922 BL             0 LIG     0.161610
     28 H3         24.7719  106.3250   46.1648 BM             0 LIG     0.136076
     29 H4         23.2583  109.1378   49.9169 BN             0 LIG     0.176324
     30 H5         27.2971  111.7987   49.4604 BO             0 LIG     0.176324
     31 H6         29.6717  111.5489   48.9015 BP             0 LIG     0.176324
     32 H7         28.6744  108.8649   45.7462 BQ             0 LIG     0.140791
     33 H8         21.1191  109.0629   43.7567 BS             0 LIG     0.046381
     34 H9         22.2984  108.2686   44.6673 BT             0 LIG     0.046381
     35 H10        21.0387  106.5305   43.4961 BU             0 LIG     0.049941
     36 H11        21.2781  107.3741   41.9603 BV             0 LIG     0.049941
     37 H12        22.7719  109.6252   41.9669 BW             0 LIG     0.046927
     38 H13        23.3741  110.1601   43.4756 BX             0 LIG     0.046927
     39 H14        23.4194  105.8797   43.5595 BY             0 LIG     0.081886
     40 H15        22.7600  105.4452   41.9974 BZ             0 LIG     0.081886
     41 H16        25.1228  108.9341   42.2270 CB             0 LIG     0.038290
     42 H17        25.5464  105.6457   42.3349 CI             0 LIG     0.142123
     43 H18        26.0133  106.8614   41.1116 CJ             0 LIG     0.142123
     44 H19        24.8628  105.5827   40.7082 CK             0 LIG     0.142123
     45 H20        33.0408  110.2793   48.1981 CM             0 LIG     0.110774
     46 H21        31.8391  109.3048   49.0466 CN             0 LIG     0.110774
     47 H22        31.6665  111.0716   48.9797 CT             0 LIG     0.110774
     48 H23        24.1781  107.7224   44.9159 CW             0 LIG     0.042019
     49 H24        25.2271  107.1894   44.0307 DA             0 LIG     0.042019
     50 H25        26.7419  108.9045   44.4068 DB             0 LIG     0.082888
     51 H26        25.6316  110.1405   44.6136 DC             0 LIG     0.082888
     52 H27        23.6185  107.4704   41.0985 DD             0 LIG     0.271082
@<TRIPOS>BOND
        1  1  2  2
        2  1  3  1
        3  1  26  1
        4  2  4  1
        5  2  27  1
        6  3  8  2
        7  3  28  1
        8  4  10  2
        9  4  29  1
        10  5  6  1
        11  5  11  2
        12  5  30  1
        13  6  12  2
        14  6  31  1
        15  7  9  2
        16  7  12  1
        17  7  32  1
        18  8  10  1
        19  8  22  1
        20  9  11  1
        21  9  22  1
        22  10  24  1
        23  11  24  1
        24  12  25  1
        25  13  14  1
        26  13  15  1
        27  13  33  1
        28  13  34  1
        29  14  16  1
        30  14  35  1
        31  14  36  1
        32  15  17  1
        33  15  37  1
        34  15  38  1
        35  16  23  1
        36  16  39  1
        37  16  40  1
        38  17  20  1
        39  17  23  1
        40  17  41  1
        41  18  23  1
        42  18  42  1
        43  18  43  1
        44  18  44  1
        45  19  25  1
        46  19  45  1
        47  19  46  1
        48  19  47  1
        49  20  21  1
        50  20  48  1
        51  20  49  1
        52  21  22  1
        53  21  50  1
        54  21  51  1
        55  23  52  1
@<TRIPOS>SUBSTRUCTURE
       1 LIG             1 RESIDUE    0 **** ROOT      0

