TDZNR1aspR
                    3D
 Structure written by MMmdl.
 52 55  0  0  1  0            999 V2000
   23.7484  106.3922   48.0189 C   0  0  0  0  0  0
   23.3226  107.1690   49.0892 C   0  0  0  0  0  0
   24.5946  106.9369   47.0548 C   0  0  0  0  0  0
   23.7259  108.4963   49.1778 C   0  0  0  0  0  0
   27.5850  111.1473   48.6482 C   0  0  0  0  0  0
   28.9306  111.0112   48.3288 C   0  0  0  0  0  0
   28.3389  109.4777   46.5651 C   0  0  0  0  0  0
   25.0453  108.2715   47.1283 C   0  0  0  0  0  0
   26.9659  109.5815   46.8741 C   0  0  0  0  0  0
   24.5631  109.0489   48.2056 C   0  0  0  0  0  0
   26.6114  110.4539   47.9270 C   0  0  0  0  0  0
   29.3117  110.1788   47.2822 C   0  0  0  0  0  0
   22.0051  108.6363   46.4498 C   0  0  0  0  0  0
   21.6596  107.1528   46.6638 C   0  0  0  0  0  0
   23.3950  108.7635   45.8181 C   0  0  0  0  0  0
   21.7800  106.3751   45.3435 C   0  0  0  0  0  0
   23.5529  107.9294   44.5229 C   0  0  1  0  0  0
   23.2415  105.6288   43.5312 C   0  0  0  0  0  0
   31.9880  110.2425   48.4134 C   0  0  0  0  0  0
   25.0122  108.0171   44.0227 C   0  0  0  0  0  0
   25.8499  109.0735   44.7927 C   0  0  0  0  0  0
   25.9783  108.8119   46.2093 N   0  0  0  0  0  0
   23.1412  106.4938   44.7377 N   0  3  2  0  0  0
   24.9291  110.7603   48.3120 S   0  0  0  0  0  0
   31.0328  110.0388   46.8851 S   0  0  0  0  0  0
   23.4261  105.3647   47.9360 H   0  0  0  0  0  0
   22.6682  106.7492   49.8389 H   0  0  0  0  0  0
   24.8842  106.2811   46.2524 H   0  0  0  0  0  0
   23.3663  109.1043   49.9955 H   0  0  0  0  0  0
   27.2978  111.8138   49.4487 H   0  0  0  0  0  0
   29.6720  111.5611   48.8901 H   0  0  0  0  0  0
   28.6729  108.8450   45.7611 H   0  0  0  0  0  0
   21.2498  109.1133   45.8064 H   0  0  0  0  0  0
   21.9797  109.1797   47.4049 H   0  0  0  0  0  0
   22.3337  106.7373   47.4216 H   0  0  0  0  0  0
   20.6436  107.0736   47.0649 H   0  0  0  0  0  0
   23.5544  109.8265   45.6344 H   0  0  0  0  0  0
   24.1535  108.4630   46.5455 H   0  0  0  0  0  0
   21.5634  105.3241   45.5520 H   0  0  0  0  0  0
   21.0207  106.7342   44.6346 H   0  0  0  0  0  0
   22.8823  108.3479   43.7648 H   0  0  0  0  0  0
   22.6563  106.0444   42.7088 H   0  0  0  0  0  0
   22.8735  104.6276   43.7564 H   0  0  0  0  0  0
   24.2703  105.5021   43.2099 H   0  0  0  0  0  0
   33.0503  110.3159   48.1806 H   0  0  0  0  0  0
   31.8442  109.3893   49.0761 H   0  0  0  0  0  0
   31.6848  111.1527   48.9303 H   0  0  0  0  0  0
   25.5078  107.0488   44.1150 H   0  0  0  0  0  0
   25.0201  108.2461   42.9667 H   0  0  0  0  0  0
   26.8889  108.8490   44.5230 H   0  0  0  0  0  0
   25.6810  110.1174   44.4974 H   0  0  0  0  0  0
   23.7934  106.1358   45.4435 H   0  0  0  0  0  0
  1  2  2  0  0  0
  1  3  1  0  0  0
  1 26  1  0  0  0
  2  4  1  0  0  0
  2 27  1  0  0  0
  3  8  2  0  0  0
  3 28  1  0  0  0
  4 10  2  0  0  0
  4 29  1  0  0  0
  5  6  2  0  0  0
  5 11  1  0  0  0
  5 30  1  0  0  0
  6 12  1  0  0  0
  6 31  1  0  0  0
  7  9  1  0  0  0
  7 12  2  0  0  0
  7 32  1  0  0  0
  8 10  1  0  0  0
  8 22  1  0  0  0
  9 11  2  0  0  0
  9 22  1  0  0  0
 10 24  1  0  0  0
 11 24  1  0  0  0
 12 25  1  0  0  0
 13 14  1  0  0  0
 13 15  1  0  0  0
 13 33  1  0  0  0
 13 34  1  0  0  0
 14 16  1  0  0  0
 14 35  1  0  0  0
 14 36  1  0  0  0
 15 17  1  0  0  0
 15 37  1  0  0  0
 15 38  1  0  0  0
 16 23  1  0  0  0
 16 39  1  0  0  0
 16 40  1  0  0  0
 17 20  1  0  0  0
 17 23  1  0  0  0
 17 41  1  0  0  0
 18 23  1  0  0  0
 18 42  1  0  0  0
 18 43  1  0  0  0
 18 44  1  0  0  0
 19 25  1  0  0  0
 19 45  1  0  0  0
 19 46  1  0  0  0
 19 47  1  0  0  0
 20 21  1  0  0  0
 20 48  1  0  0  0
 20 49  1  0  0  0
 21 22  1  0  0  0
 21 50  1  0  0  0
 21 51  1  0  0  0
 23 52  1  0  0  0
M  CHG  1  23   1
M  END
> <s_m_entry_id>
573

> <s_m_entry_name>
TDZNR1aspR.1

> <s_m_Source_Path>
/home/emilio/Dropbox/SAMPL9-eglab/mCD/ligsdfs

> <s_m_Source_File>
TDZNR1aspR.sdf

> <i_m_Source_File_Index>
1

> <i_lp_mmshare_version>
47013

> <s_epik_input>
W2NIXTFbY0hdW2NIXVtjSF1jKGMxMilTYzNjKFtjSF1jKFtjSF1bY0hdMylTW0NIM10pTjJbQ0gyXVtDSDJdW0NAQEhdNFtDSDJdW0NIMl1bQ0gyXVtDSDJdTjRbQ0gzXQ==

> <s_epik_cmdline>
J2VwaWtfcHl0aG9uJywgJy1waHQnLCAnNC4wJywgJy1waCcsICc3LjQnLCAnLXRuJywgJzgnLCAnLW1hJywgJzIwMCcsICctaW1hZScsICc8aW5maWxlLm1hZT4nLCAnLW9tYWUnLCAnPG91dGZpbGUubWFlPic=

> <r_epik_Ionization_Penalty>
  0.0017

> <r_epik_Ionization_Penalty_Charging>
  0.0017

> <r_epik_Ionization_Penalty_Neutral>
  0.0000

> <r_epik_State_Penalty>
  0.0011

> <r_epik_Charging_Adjusted_Penalty>
0.00279136850725907

> <i_epik_Tot_Q>
1

> <i_epik_Tot_abs_Q>
1

> <s_lp_Force_Field>
OPLS3e

> <r_lp_Energy>
55.960333

> <b_lp_Chiralities_Consistent>
1

> <s_lp_Variant>
TDZ-NR-1

> <s_m_job_name>
ligprep_4

> <chiral flag>
1

> <version>
0

> <i_f3d_flags>
0

> <s_m_subgroup_title>
mCDq->spR d_copy1

> <s_m_subgroupid>
mCDq->spR_copy2

> <b_m_subgroup_collapsed>
0

$$$$
