TFP1aspR
                    3D
 Structure written by MMmdl.
 50 53  0  0  1  0            999 V2000
   23.5126  106.4776   47.8123 C   0  0  0  0  0  0
   23.0606  107.2514   48.8742 C   0  0  0  0  0  0
   24.4480  106.9968   46.9190 C   0  0  0  0  0  0
   23.5310  108.5507   49.0269 C   0  0  0  0  0  0
   27.5826  111.1438   48.6527 C   0  0  0  0  0  0
   28.9291  111.0038   48.3370 C   0  0  0  0  0  0
   28.3364  109.4852   46.5656 C   0  0  0  0  0  0
   24.9615  108.3029   47.0563 C   0  0  0  0  0  0
   26.9631  109.5868   46.8733 C   0  0  0  0  0  0
   24.4587  109.0786   48.1256 C   0  0  0  0  0  0
   26.6086  110.4564   47.9271 C   0  0  0  0  0  0
   29.3178  110.1783   47.2810 C   0  0  0  0  0  0
   23.6047  108.0732   40.5067 C   0  0  0  0  0  0
   22.6111  107.1677   42.5224 C   0  0  0  0  0  0
   22.8291  107.0514   39.6448 C   0  0  0  0  0  0
   21.8334  106.1346   41.6861 C   0  0  0  0  0  0
   24.9817  108.1578   44.0481 C   0  0  0  0  0  0
   25.8447  109.1607   44.8018 C   0  0  0  0  0  0
   24.5944  108.5506   42.6160 C   0  0  0  0  0  0
   25.9767  108.8137   46.2112 N   0  0  0  0  0  0
   23.8576  107.5230   41.8447 N   0  0  0  0  0  0
   21.5667  106.6559   40.3381 N   0  3  0  0  0  0
   31.1032  108.7092   46.8902 F   0  0  0  0  0  0
   31.6104  110.6214   47.7572 F   0  0  0  0  0  0
   30.9955  110.5069   45.6873 F   0  0  0  0  0  0
   24.9248  110.7592   48.3113 S   0  0  0  0  0  0
   30.7886  110.0054   46.9050 C   0  0  0  0  0  0
   23.1423  105.4714   47.6823 H   0  0  0  0  0  0
   22.3377  106.8505   49.5691 H   0  0  0  0  0  0
   24.7589  106.3444   46.1214 H   0  0  0  0  0  0
   23.1560  109.1562   49.8397 H   0  0  0  0  0  0
   27.2956  111.8057   49.4570 H   0  0  0  0  0  0
   29.6618  111.5509   48.9121 H   0  0  0  0  0  0
   28.6818  108.8510   45.7651 H   0  0  0  0  0  0
   24.5515  108.3009   39.9947 H   0  0  0  0  0  0
   23.0397  109.0041   40.5904 H   0  0  0  0  0  0
   22.0297  108.0751   42.7001 H   0  0  0  0  0  0
   22.8247  106.7115   43.4910 H   0  0  0  0  0  0
   22.5737  107.4892   38.6785 H   0  0  0  0  0  0
   23.4263  106.1587   39.4517 H   0  0  0  0  0  0
   22.3819  105.1873   41.6255 H   0  0  0  0  0  0
   20.8826  105.9182   42.1923 H   0  0  0  0  0  0
   25.4415  107.2112   44.0350 H   0  0  0  0  0  0
   24.1145  107.8863   44.5962 H   0  0  0  0  0  0
   26.8425  109.0293   44.3944 H   0  0  0  0  0  0
   25.6197  110.2232   44.5979 H   0  0  0  0  0  0
   24.0600  109.4963   42.6044 H   0  0  0  0  0  0
   25.5050  108.7553   42.0562 H   0  0  0  0  0  0
   20.9848  107.4690   40.4195 H   0  0  0  0  0  0
   21.0812  105.9622   39.7914 H   0  0  0  0  0  0
  1  2  2  0  0  0
  1  3  1  0  0  0
  1 28  1  0  0  0
  2  4  1  0  0  0
  2 29  1  0  0  0
  3  8  2  0  0  0
  3 30  1  0  0  0
  4 10  2  0  0  0
  4 31  1  0  0  0
  5  6  2  0  0  0
  5 11  1  0  0  0
  5 32  1  0  0  0
  6 12  1  0  0  0
  6 33  1  0  0  0
  7  9  1  0  0  0
  7 12  2  0  0  0
  7 34  1  0  0  0
  8 10  1  0  0  0
  8 20  1  0  0  0
  9 11  2  0  0  0
  9 20  1  0  0  0
 10 26  1  0  0  0
 11 26  1  0  0  0
 12 27  1  0  0  0
 13 15  1  0  0  0
 13 21  1  0  0  0
 13 35  1  0  0  0
 13 36  1  0  0  0
 14 16  1  0  0  0
 14 21  1  0  0  0
 14 37  1  0  0  0
 14 38  1  0  0  0
 15 22  1  0  0  0
 15 39  1  0  0  0
 15 40  1  0  0  0
 16 22  1  0  0  0
 16 41  1  0  0  0
 16 42  1  0  0  0
 17 18  1  0  0  0
 17 19  1  0  0  0
 17 43  1  0  0  0
 17 44  1  0  0  0
 18 20  1  0  0  0
 18 45  1  0  0  0
 18 46  1  0  0  0
 19 21  1  0  0  0
 19 47  1  0  0  0
 19 48  1  0  0  0
 22 49  1  0  0  0
 22 50  1  0  0  0
 23 27  1  0  0  0
 24 27  1  0  0  0
 25 27  1  0  0  0
M  CHG  1  22   1
M  END
> <s_m_entry_id>
577

> <s_m_entry_name>
TFP1aspR.1

> <s_m_Source_Path>
/home/emilio/Dropbox/SAMPL9-eglab/mCD/ligsdfs

> <s_m_Source_File>
TFP1aspR.sdf

> <i_m_Source_File_Index>
1

> <i_lp_mmshare_version>
47013

> <s_epik_input>
W2NIXTFbY0hdW2NIXVtjSF1jKGMxMilTYzNjKFtjSF1jKEMoRikoRilGKVtjSF1bY0hdMylOMltDSDJdW0NIMl1bQ0gyXU40W0NIMl1bQ0gyXVtOSF1bQ0gyXVtDSDJdNA==

> <s_epik_cmdline>
J2VwaWtfcHl0aG9uJywgJy1waHQnLCAnNC4wJywgJy1waCcsICc3LjQnLCAnLXRuJywgJzgnLCAnLW1hJywgJzIwMCcsICctaW1hZScsICc8aW5maWxlLm1hZT4nLCAnLW9tYWUnLCAnPG91dGZpbGUubWFlPic=

> <r_epik_Ionization_Penalty>
  0.0078

> <r_epik_Ionization_Penalty_Charging>
  0.0071

> <r_epik_Ionization_Penalty_Neutral>
  0.0007

> <r_epik_State_Penalty>
  0.0420

> <r_epik_Charging_Adjusted_Penalty>
0.0491285084707666

> <i_epik_Tot_Q>
1

> <i_epik_Tot_abs_Q>
1

> <s_lp_Force_Field>
OPLS3e

> <r_lp_Energy>
60.619284

> <b_lp_Chiralities_Consistent>
1

> <s_lp_Variant>
TFP-1

> <s_m_job_name>
ligprep_4

> <chiral flag>
1

> <version>
0

> <i_f3d_flags>
0

> <s_m_subgroup_title>
mCDq->spR d_copy1

> <s_m_subgroupid>
mCDq->spR_copy2

> <b_m_subgroup_collapsed>
0

$$$$
