@<TRIPOS>MOLECULE
LIG
50 53
SMALL
USER_CHARGES
@<TRIPOS>ATOM
      1 C1         23.5126  106.4776   47.8123 AA             0 LIG     -0.148793
      2 C2         23.0606  107.2514   48.8742 AB             0 LIG     -0.148793
      3 C3         24.4480  106.9968   46.9190 AD             0 LIG     -0.214109
      4 C4         23.5310  108.5507   49.0269 AE             0 LIG     -0.192215
      5 C5         27.5826  111.1438   48.6527 AF             0 LIG     -0.192215
      6 C6         28.9291  111.0038   48.3370 AH             0 LIG     -0.190417
      7 C7         28.3364  109.4852   46.5656 AI             0 LIG     -0.264320
      8 C8         24.9615  108.3029   47.0563 AJ             0 LIG     0.095370
      9 C9         26.9631  109.5868   46.8733 AK             0 LIG     0.095370
     10 C10        24.4587  109.0786   48.1256 AN             0 LIG     0.116137
     11 C11        26.6086  110.4564   47.9271 AO             0 LIG     0.116137
     12 C12        29.3178  110.1783   47.2810 AP             0 LIG     -0.071581
     13 C13        23.6047  108.0732   40.5067 AQ             0 LIG     0.037365
     14 C14        22.6111  107.1677   42.5224 AV             0 LIG     0.037365
     15 C15        22.8291  107.0514   39.6448 AW             0 LIG     0.086222
     16 C16        21.8334  106.1346   41.6861 AX             0 LIG     0.086222
     17 C17        24.9817  108.1578   44.0481 AY             0 LIG     0.011333
     18 C18        25.8447  109.1607   44.8018 AZ             0 LIG     0.026484
     19 C19        24.5944  108.5506   42.6160 BB             0 LIG     0.037611
     20 N1         25.9767  108.8137   46.2112 BC             0 LIG     -0.178062
     21 N2         23.8576  107.5230   41.8447 BD             0 LIG     -0.528710
     22 N3         21.5667  106.6559   40.3381 BF             0 LIG     -0.527743
     23 F1         31.1032  108.7092   46.8902 BG             0 LIG     -0.255693
     24 F2         31.6104  110.6214   47.7572 BH             0 LIG     -0.255693
     25 F3         30.9955  110.5069   45.6873 BJ             0 LIG     -0.255693
     26 S1         24.9248  110.7592   48.3113 BK             0 LIG     -0.174420
     27 C20        30.7886  110.0054   46.9050 BL             0 LIG     0.695255
     28 H1         23.1423  105.4714   47.6823 BM             0 LIG     0.167075
     29 H2         22.3377  106.8505   49.5691 BN             0 LIG     0.167075
     30 H3         24.7589  106.3444   46.1214 BO             0 LIG     0.157041
     31 H4         23.1560  109.1562   49.8397 BP             0 LIG     0.180382
     32 H5         27.2956  111.8057   49.4570 BQ             0 LIG     0.180382
     33 H6         29.6618  111.5509   48.9121 BS             0 LIG     0.183084
     34 H7         28.6818  108.8510   45.7651 BT             0 LIG     0.171935
     35 H8         24.5515  108.3009   39.9947 BU             0 LIG     0.086347
     36 H9         23.0397  109.0041   40.5904 BV             0 LIG     0.086347
     37 H10        22.0297  108.0751   42.7001 BW             0 LIG     0.086347
     38 H11        22.8247  106.7115   43.4910 BX             0 LIG     0.086347
     39 H12        22.5737  107.4892   38.6785 BY             0 LIG     0.119217
     40 H13        23.4263  106.1587   39.4517 BZ             0 LIG     0.119217
     41 H14        22.3819  105.1873   41.6255 CB             0 LIG     0.119217
     42 H15        20.8826  105.9182   42.1923 CI             0 LIG     0.119217
     43 H16        25.4415  107.2112   44.0350 CJ             0 LIG     0.035265
     44 H17        24.1145  107.8863   44.5962 CK             0 LIG     0.035265
     45 H18        26.8425  109.0293   44.3944 CM             0 LIG     0.085093
     46 H19        25.6197  110.2232   44.5979 CN             0 LIG     0.085093
     47 H20        24.0600  109.4963   42.6044 CT             0 LIG     0.068063
     48 H21        25.5050  108.7553   42.0562 CW             0 LIG     0.068063
     49 H22        20.9848  107.4690   40.4195 DA             0 LIG     0.375757
     50 H23        21.0812  105.9622   39.7914 DB             0 LIG     0.375757
@<TRIPOS>BOND
        1  1  2  2
        2  1  3  1
        3  1  28  1
        4  2  4  1
        5  2  29  1
        6  3  8  2
        7  3  30  1
        8  4  10  2
        9  4  31  1
        10  5  6  1
        11  5  11  2
        12  5  32  1
        13  6  12  2
        14  6  33  1
        15  7  9  2
        16  7  12  1
        17  7  34  1
        18  8  10  1
        19  8  20  1
        20  9  11  1
        21  9  20  1
        22  10  26  1
        23  11  26  1
        24  12  27  1
        25  13  15  1
        26  13  21  1
        27  13  35  1
        28  13  36  1
        29  14  16  1
        30  14  21  1
        31  14  37  1
        32  14  38  1
        33  15  22  1
        34  15  39  1
        35  15  40  1
        36  16  22  1
        37  16  41  1
        38  16  42  1
        39  17  18  1
        40  17  19  1
        41  17  43  1
        42  17  44  1
        43  18  20  1
        44  18  45  1
        45  18  46  1
        46  19  21  1
        47  19  47  1
        48  19  48  1
        49  22  49  1
        50  22  50  1
        51  23  27  1
        52  24  27  1
        53  25  27  1
@<TRIPOS>SUBSTRUCTURE
       1 LIG             1 RESIDUE    0 **** ROOT      0

