@<TRIPOS>MOLECULE
LIG
50 53
SMALL
USER_CHARGES
@<TRIPOS>ATOM
      1 C1         23.3887  106.5361   47.7021 AA             0 LIG     -0.146946
      2 C2         22.9309  107.3088   48.7620 AB             0 LIG     -0.146946
      3 C3         24.3661  107.0377   46.8453 AD             0 LIG     -0.213882
      4 C4         23.4389  108.5895   48.9486 AE             0 LIG     -0.189563
      5 C5         27.5823  111.1337   48.6599 AF             0 LIG     -0.189563
      6 C6         28.9283  110.9975   48.3425 AH             0 LIG     -0.186283
      7 C7         28.3356  109.4865   46.5634 AI             0 LIG     -0.267664
      8 C8         24.9196  108.3250   47.0182 AJ             0 LIG     0.094519
      9 C9         26.9639  109.5819   46.8747 AK             0 LIG     0.094519
     10 C10        24.4107  109.0996   48.0847 AN             0 LIG     0.116195
     11 C11        26.6088  110.4486   47.9312 AO             0 LIG     0.116195
     12 C12        29.3168  110.1787   47.2815 AP             0 LIG     -0.069395
     13 C13        21.8307  108.4062   43.8263 AQ             0 LIG     -0.041121
     14 C14        22.6030  106.7501   45.3746 AV             0 LIG     -0.041121
     15 C15        20.3865  108.0960   44.2589 AW             0 LIG     0.063286
     16 C16        21.1512  106.4081   45.7689 AX             0 LIG     0.063286
     17 C17        25.0398  107.8746   44.3810 AY             0 LIG     -0.016690
     18 C18        25.9354  109.0531   44.7858 AZ             0 LIG     0.028631
     19 C19        24.0483  107.7037   43.3382 BB             0 LIG     -0.059139
     20 N1         25.9767  108.8127   46.2102 BC             0 LIG     -0.187888
     21 N2         22.7323  107.2637   43.9284 BD             0 LIG     -0.035261
     22 N3         20.3459  107.6105   45.6283 BF             0 LIG     -0.795699
     23 F1         30.9584  110.3999   45.6271 BG             0 LIG     -0.251326
     24 F2         31.1443  108.7433   47.0102 BH             0 LIG     -0.251326
     25 F3         31.5994  110.7537   47.6605 BJ             0 LIG     -0.251326
     26 S1         24.9256  110.7597   48.3118 BK             0 LIG     -0.162784
     27 C20        30.7867  110.0229   46.8946 BL             0 LIG     0.697269
     28 H1         22.9907  105.5444   47.5463 BM             0 LIG     0.171877
     29 H2         22.1749  106.9223   49.4294 BN             0 LIG     0.171877
     30 H3         24.6856  106.3853   46.0488 BO             0 LIG     0.150837
     31 H4         23.0588  109.1953   49.7592 BP             0 LIG     0.186066
     32 H5         27.2941  111.7935   49.4657 BQ             0 LIG     0.186066
     33 H6         29.6606  111.5446   48.9181 BS             0 LIG     0.189607
     34 H7         28.6819  108.8686   45.7528 BT             0 LIG     0.149674
     35 H8         21.8062  108.7185   42.7839 BU             0 LIG     0.093433
     36 H9         22.2617  109.2092   44.4258 BV             0 LIG     0.093433
     37 H10        23.0696  107.4052   46.1025 BW             0 LIG     0.093433
     38 H11        22.9119  105.7852   45.6895 BX             0 LIG     0.093433
     39 H12        19.8033  109.0381   44.1775 BY             0 LIG     0.105981
     40 H13        19.9407  107.3598   43.5779 BZ             0 LIG     0.105981
     41 H14        20.7442  105.6186   45.1333 CB             0 LIG     0.105981
     42 H15        21.0722  106.0424   46.8119 CI             0 LIG     0.105981
     43 H16        25.2612  106.9418   44.8614 CJ             0 LIG     0.044237
     44 H17        24.2865  108.3643   44.8120 CK             0 LIG     0.044237
     45 H18        26.9164  108.9157   44.3462 CM             0 LIG     0.093748
     46 H19        25.5194  110.0288   44.4857 CN             0 LIG     0.093748
     47 H20        23.8594  108.5798   42.7315 CT             0 LIG     0.094892
     48 H21        24.3749  106.9940   42.6162 CW             0 LIG     0.094892
     49 H22        20.5796  108.3074   46.3275 DA             0 LIG     0.419755
     50 H23        22.3363  106.5165   43.3890 DB             0 LIG     0.340852
@<TRIPOS>BOND
        1  1  2  2
        2  1  3  1
        3  1  28  1
        4  2  4  1
        5  2  29  1
        6  3  8  2
        7  3  30  1
        8  4  10  2
        9  4  31  1
        10  5  6  1
        11  5  11  2
        12  5  32  1
        13  6  12  2
        14  6  33  1
        15  7  9  2
        16  7  12  1
        17  7  34  1
        18  8  10  1
        19  8  20  1
        20  9  11  1
        21  9  20  1
        22  10  26  1
        23  11  26  1
        24  12  27  1
        25  13  15  1
        26  13  21  1
        27  13  35  1
        28  13  36  1
        29  14  16  1
        30  14  21  1
        31  14  37  1
        32  14  38  1
        33  15  22  1
        34  15  39  1
        35  15  40  1
        36  16  22  1
        37  16  41  1
        38  16  42  1
        39  17  18  1
        40  17  19  1
        41  17  43  1
        42  17  44  1
        43  18  20  1
        44  18  45  1
        45  18  46  1
        46  19  21  1
        47  19  47  1
        48  19  48  1
        49  21  50  1
        50  22  49  1
        51  23  27  1
        52  24  27  1
        53  25  27  1
@<TRIPOS>SUBSTRUCTURE
       1 LIG             1 RESIDUE    0 **** ROOT      0

