CPZ1apsS
                    3D
 Schrodinger Suite 2019-4.
 41 43  0  0  1  0            999 V2000
   31.4515  111.2596   50.8535 C   0  0  0  0  0  0
   31.3619  110.2519   51.8355 C   0  0  0  0  0  0
   30.2845  111.7895   50.2780 C   0  0  0  0  0  0
   30.0992  109.7712   52.2352 C   0  0  0  0  0  0
   25.6125  108.7708   50.1650 C   0  0  0  0  0  0
   24.9850  108.8399   48.9067 C   0  0  0  0  0  0
   26.1726  110.9191   48.4297 C   0  0  0  0  0  0
   29.0083  111.3200   50.6642 C   0  0  0  0  0  0
   26.8311  110.8532   49.6769 C   0  0  0  0  0  0
   28.9326  110.2865   51.6384 C   0  0  0  0  0  0
   26.5419  109.7600   50.5409 C   0  0  0  0  0  0
   25.2681  109.9149   48.0400 C   0  0  0  0  0  0
   26.5274  113.6060   54.7960 C   0  0  0  0  0  0
   28.1894  112.0129   53.9876 C   0  0  0  0  0  0
   26.8154  113.9445   51.2531 C   0  0  0  0  0  0
   27.4925  113.2149   50.0593 C   0  0  0  0  0  0
   26.5104  112.9256   52.3922 C   0  0  0  0  0  0
   27.8248  111.7801   50.0477 N   0  0  0  0  0  0
   27.3301  113.1666   53.6252 N   0  3  0  0  0  0
   27.3707  109.6019   52.0870 S   0  0  0  0  0  0
   24.5211  109.9892   46.4878 Cl  0  0  0  0  0  0
   32.4201  111.6086   50.5295 H   0  0  0  0  0  0
   32.2589  109.8262   52.2657 H   0  0  0  0  0  0
   30.3875  112.5319   49.5054 H   0  0  0  0  0  0
   30.0263  108.9871   52.9770 H   0  0  0  0  0  0
   25.4071  107.9422   50.8336 H   0  0  0  0  0  0
   24.3009  108.0585   48.6039 H   0  0  0  0  0  0
   26.3785  111.7176   47.7375 H   0  0  0  0  0  0
   25.8881  112.8064   55.1725 H   0  0  0  0  0  0
   25.8736  114.4505   54.5893 H   0  0  0  0  0  0
   27.1816  113.9186   55.6085 H   0  0  0  0  0  0
   27.5964  111.1427   54.2740 H   0  0  0  0  0  0
   28.8241  112.2680   54.8358 H   0  0  0  0  0  0
   28.8478  111.7245   53.1679 H   0  0  0  0  0  0
   27.4702  114.7079   51.6488 H   0  0  0  0  0  0
   25.9255  114.4975   50.9909 H   0  0  0  0  0  0
   26.8551  113.3844   49.1892 H   0  0  0  0  0  0
   28.4262  113.7313   49.8629 H   0  0  0  0  0  0
   25.4429  112.9791   52.6322 H   0  0  0  0  0  0
   26.6622  111.9044   52.0275 H   0  0  0  0  0  0
   27.9620  113.9220   53.3887 H   0  0  0  0  0  0
  1  2  2  0  0  0
  1  3  1  0  0  0
  1 22  1  0  0  0
  2  4  1  0  0  0
  2 23  1  0  0  0
  3  8  2  0  0  0
  3 24  1  0  0  0
  4 10  2  0  0  0
  4 25  1  0  0  0
  5  6  2  0  0  0
  5 11  1  0  0  0
  5 26  1  0  0  0
  6 12  1  0  0  0
  6 27  1  0  0  0
  7  9  1  0  0  0
  7 12  2  0  0  0
  7 28  1  0  0  0
  8 10  1  0  0  0
  8 18  1  0  0  0
  9 11  2  0  0  0
  9 18  1  0  0  0
 10 20  1  0  0  0
 11 20  1  0  0  0
 12 21  1  0  0  0
 13 19  1  0  0  0
 13 29  1  0  0  0
 13 30  1  0  0  0
 13 31  1  0  0  0
 14 19  1  0  0  0
 14 32  1  0  0  0
 14 33  1  0  0  0
 14 34  1  0  0  0
 15 16  1  0  0  0
 15 17  1  0  0  0
 15 35  1  0  0  0
 15 36  1  0  0  0
 16 18  1  0  0  0
 16 37  1  0  0  0
 16 38  1  0  0  0
 17 19  1  0  0  0
 17 39  1  0  0  0
 17 40  1  0  0  0
 19 41  1  0  0  0
M  CHG  1  19   1
M  END
> <s_m_entry_id>
597

> <s_m_Source_Path>
/home/emilio/Dropbox/SAMPL9-eglab/mCD/ligsdfs

> <s_m_Source_File>
CPZ1apsS.sdf

> <i_m_Source_File_Index>
1

> <r_epik_Ionization_Penalty>
  0.0036

> <r_epik_State_Penalty>
  0.0025

> <i_epik_Tot_Q>
1

> <s_m_job_name>
ligprep_4

> <i_f3d_flags>
0

$$$$
