PMT1apsS
                    3D
 Schrodinger Suite 2019-4.
 41 43  0  0  1  0            999 V2000
   31.3977  111.4972   51.1590 C   0  0  0  0  0  0
   25.2687  109.9100   48.0473 C   0  0  0  0  0  0
   31.3279  110.3818   52.0156 C   0  0  0  0  0  0
   25.0154  108.8224   48.9036 C   0  0  0  0  0  0
   30.2285  112.0268   50.5792 C   0  0  0  0  0  0
   26.1555  110.9396   48.4425 C   0  0  0  0  0  0
   30.0747  109.8072   52.3019 C   0  0  0  0  0  0
   25.6375  108.7702   50.1597 C   0  0  0  0  0  0
   28.9749  111.4004   50.7782 C   0  0  0  0  0  0
   26.8226  110.8729   49.6890 C   0  0  0  0  0  0
   28.9115  110.3179   51.6922 C   0  0  0  0  0  0
   26.5424  109.7755   50.5437 C   0  0  0  0  0  0
   25.2624  114.1915   51.6319 C   0  0  0  0  0  0
   26.8305  112.0387   53.5952 C   0  0  0  0  0  0
   27.8285  114.2454   53.1334 C   0  0  0  0  0  0
   27.2481  113.0956   50.1056 C   0  0  0  0  0  0
   26.4046  113.1022   51.4229 C   0  0  1  0  0  0
   27.8338  111.7970   50.0399 N   0  0  0  0  0  0
   27.3448  112.9647   52.5653 N   0  3  0  0  0  0
   27.3620  109.5898   52.0877 S   0  0  0  0  0  0
   32.3615  111.9331   50.9345 H   0  0  0  0  0  0
   24.8116  109.9216   47.0664 H   0  0  0  0  0  0
   32.2290  109.9677   52.4494 H   0  0  0  0  0  0
   24.3663  108.0115   48.5948 H   0  0  0  0  0  0
   30.3317  112.8869   49.9454 H   0  0  0  0  0  0
   26.3459  111.7229   47.7268 H   0  0  0  0  0  0
   30.0100  108.9646   52.9725 H   0  0  0  0  0  0
   25.4750  107.9307   50.8198 H   0  0  0  0  0  0
   24.7487  114.4695   50.7362 H   0  0  0  0  0  0
   25.5124  115.1180   52.0772 H   0  0  0  0  0  0
   24.4775  113.8484   52.2809 H   0  0  0  0  0  0
   25.9332  112.4374   54.0487 H   0  0  0  0  0  0
   27.5690  111.8859   54.3710 H   0  0  0  0  0  0
   26.5974  111.0682   53.1739 H   0  0  0  0  0  0
   26.9787  114.8714   53.4265 H   0  0  0  0  0  0
   28.4389  114.7968   52.4095 H   0  0  0  0  0  0
   28.4626  114.0782   54.0001 H   0  0  0  0  0  0
   26.6313  113.2235   49.2271 H   0  0  0  0  0  0
   28.0081  113.9096   50.0933 H   0  0  0  0  0  0
   25.8151  112.1807   51.3780 H   0  0  0  0  0  0
   28.1520  112.5315   52.1467 H   0  0  0  0  0  0
  1  3  2  0  0  0
  1  5  1  0  0  0
  1 21  1  0  0  0
  2  4  2  0  0  0
  2  6  1  0  0  0
  2 22  1  0  0  0
  3  7  1  0  0  0
  3 23  1  0  0  0
  4  8  1  0  0  0
  4 24  1  0  0  0
  5  9  2  0  0  0
  5 25  1  0  0  0
  6 10  2  0  0  0
  6 26  1  0  0  0
  7 11  2  0  0  0
  7 27  1  0  0  0
  8 12  2  0  0  0
  8 28  1  0  0  0
  9 11  1  0  0  0
  9 18  1  0  0  0
 10 12  1  0  0  0
 10 18  1  0  0  0
 11 20  1  0  0  0
 12 20  1  0  0  0
 13 17  1  0  0  0
 13 29  1  0  0  0
 13 30  1  0  0  0
 13 31  1  0  0  0
 14 19  1  0  0  0
 14 32  1  0  0  0
 14 33  1  0  0  0
 14 34  1  0  0  0
 15 19  1  0  0  0
 15 35  1  0  0  0
 15 36  1  0  0  0
 15 37  1  0  0  0
 16 17  1  0  0  0
 16 18  1  0  0  0
 16 38  1  0  0  0
 16 39  1  0  0  0
 17 19  1  0  0  0
 17 40  1  0  0  0
 19 41  1  0  0  0
M  CHG  1  19   1
M  END
> <s_m_entry_id>
599

> <s_m_Source_Path>
/home/emilio/Dropbox/SAMPL9-eglab/mCD/ligsdfs

> <s_m_Source_File>
PMT1apsS.sdf

> <i_m_Source_File_Index>
1

> <r_epik_Ionization_Penalty>
  0.0045

> <r_epik_State_Penalty>
  0.0032

> <i_epik_Tot_Q>
1

> <s_m_job_name>
ligprep_4

> <i_f3d_flags>
0

$$$$
