TDZNS1apsS
                    3D
 Schrodinger Suite 2019-4.
 52 55  0  0  1  0            999 V2000
   31.4040  111.4792   51.0715 C   0  0  0  0  0  0
   31.3200  110.4471   52.0268 C   0  0  0  0  0  0
   30.2372  111.9536   50.4390 C   0  0  0  0  0  0
   30.0693  109.8951   52.3510 C   0  0  0  0  0  0
   25.6189  108.7719   50.1667 C   0  0  0  0  0  0
   24.9945  108.8414   48.9097 C   0  0  0  0  0  0
   26.1671  110.9353   48.4442 C   0  0  0  0  0  0
   28.9789  111.3855   50.7313 C   0  0  0  0  0  0
   26.8283  110.8553   49.6897 C   0  0  0  0  0  0
   28.9087  110.3496   51.6990 C   0  0  0  0  0  0
   26.5431  109.7613   50.5449 C   0  0  0  0  0  0
   25.2728  109.9166   48.0459 C   0  0  0  0  0  0
   25.2843  113.9936   54.3065 C   0  0  0  0  0  0
   26.2256  115.1490   54.6856 C   0  0  0  0  0  0
   26.0744  112.7503   53.8681 C   0  0  0  0  0  0
   27.2762  115.4160   53.5932 C   0  0  0  0  0  0
   27.1135  113.0712   52.7681 C   0  0  1  0  0  0
   29.2247  114.3886   52.4378 C   0  0  0  0  0  0
   23.4486  108.4758   46.2934 C   0  0  0  0  0  0
   26.4707  113.3967   51.3890 C   0  0  0  0  0  0
   27.4186  113.1917   50.1895 C   0  0  0  0  0  0
   27.8247  111.7869   50.0370 N   0  0  0  0  0  0
   28.0099  114.1624   53.2647 N   0  3  1  0  0  0
   27.3670  109.5932   52.0920 S   0  0  0  0  0  0
   24.5091  109.9362   46.4544 S   0  0  0  0  0  0
   32.3638  111.9037   50.8212 H   0  0  0  0  0  0
   32.2133  110.0695   52.5027 H   0  0  0  0  0  0
   30.3372  112.7276   49.6988 H   0  0  0  0  0  0
   29.9925  109.1104   53.0890 H   0  0  0  0  0  0
   25.4132  107.9487   50.8333 H   0  0  0  0  0  0
   24.3118  108.0602   48.6063 H   0  0  0  0  0  0
   26.3912  111.7439   47.7745 H   0  0  0  0  0  0
   24.6443  113.7493   55.1562 H   0  0  0  0  0  0
   24.6081  114.3115   53.5150 H   0  0  0  0  0  0
   25.6419  116.0534   54.8710 H   0  0  0  0  0  0
   26.7249  114.9229   55.6302 H   0  0  0  0  0  0
   26.5879  112.3355   54.7385 H   0  0  0  0  0  0
   25.3863  111.9702   53.5392 H   0  0  0  0  0  0
   26.8052  115.8260   52.6978 H   0  0  0  0  0  0
   27.9783  116.1721   53.9480 H   0  0  0  0  0  0
   27.7444  112.1814   52.6409 H   0  0  0  0  0  0
   28.9928  114.8783   51.4879 H   0  0  0  0  0  0
   29.7373  113.4487   52.2250 H   0  0  0  0  0  0
   29.9301  115.0313   52.9728 H   0  0  0  0  0  0
   23.0061  108.4543   45.2970 H   0  0  0  0  0  0
   22.6382  108.4988   47.0213 H   0  0  0  0  0  0
   24.0311  107.5647   46.4299 H   0  0  0  0  0  0
   25.5751  112.7986   51.2387 H   0  0  0  0  0  0
   26.1320  114.4311   51.3653 H   0  0  0  0  0  0
   26.9418  113.5161   49.2624 H   0  0  0  0  0  0
   28.2981  113.8268   50.2961 H   0  0  0  0  0  0
   28.3608  113.8198   54.1481 H   0  0  0  0  0  0
  1  2  2  0  0  0
  1  3  1  0  0  0
  1 26  1  0  0  0
  2  4  1  0  0  0
  2 27  1  0  0  0
  3  8  2  0  0  0
  3 28  1  0  0  0
  4 10  2  0  0  0
  4 29  1  0  0  0
  5  6  2  0  0  0
  5 11  1  0  0  0
  5 30  1  0  0  0
  6 12  1  0  0  0
  6 31  1  0  0  0
  7  9  1  0  0  0
  7 12  2  0  0  0
  7 32  1  0  0  0
  8 10  1  0  0  0
  8 22  1  0  0  0
  9 11  2  0  0  0
  9 22  1  0  0  0
 10 24  1  0  0  0
 11 24  1  0  0  0
 12 25  1  0  0  0
 13 14  1  0  0  0
 13 15  1  0  0  0
 13 33  1  0  0  0
 13 34  1  0  0  0
 14 16  1  0  0  0
 14 35  1  0  0  0
 14 36  1  0  0  0
 15 17  1  0  0  0
 15 37  1  0  0  0
 15 38  1  0  0  0
 16 23  1  0  0  0
 16 39  1  0  0  0
 16 40  1  0  0  0
 17 20  1  0  0  0
 17 23  1  0  0  0
 17 41  1  0  0  0
 18 23  1  0  0  0
 18 42  1  0  0  0
 18 43  1  0  0  0
 18 44  1  0  0  0
 19 25  1  0  0  0
 19 45  1  0  0  0
 19 46  1  0  0  0
 19 47  1  0  0  0
 20 21  1  0  0  0
 20 48  1  0  0  0
 20 49  1  0  0  0
 21 22  1  0  0  0
 21 50  1  0  0  0
 21 51  1  0  0  0
 23 52  1  0  0  0
M  CHG  1  23   1
M  END
> <s_m_entry_id>
605

> <s_m_Source_Path>
/home/emilio/Dropbox/SAMPL9-eglab/mCD/ligsdfs

> <s_m_Source_File>
TDZNS1apsS.sdf

> <i_m_Source_File_Index>
1

> <r_epik_Ionization_Penalty>
  0.0017

> <r_epik_State_Penalty>
  0.0011

> <i_epik_Tot_Q>
1

> <s_m_job_name>
ligprep_4

> <i_f3d_flags>
0

$$$$
