TFP1bpsS
                    3D
 Schrodinger Suite 2019-4.
 50 53  0  0  1  0            999 V2000
   31.3872  111.4855   51.2334 C   0  0  0  0  0  0
   31.2419  110.5653   52.2642 C   0  0  0  0  0  0
   30.2787  111.8719   50.4826 C   0  0  0  0  0  0
   29.9905  110.0193   52.5268 C   0  0  0  0  0  0
   25.5281  108.8736   50.2187 C   0  0  0  0  0  0
   24.8987  108.9304   48.9808 C   0  0  0  0  0  0
   26.2607  110.8291   48.3979 C   0  0  0  0  0  0
   28.9902  111.3543   50.7363 C   0  0  0  0  0  0
   26.9014  110.8159   49.6539 C   0  0  0  0  0  0
   28.8793  110.3960   51.7685 C   0  0  0  0  0  0
   26.5251  109.7921   50.5503 C   0  0  0  0  0  0
   25.2685  109.9052   48.0532 C   0  0  0  0  0  0
   28.0817  113.0004   54.3824 C   0  0  0  0  0  0
   26.9236  114.9668   53.4961 C   0  0  0  0  0  0
   29.1334  113.9288   55.0011 C   0  0  0  0  0  0
   28.0085  115.8753   54.1225 C   0  0  0  0  0  0
   26.2900  112.9379   51.2032 C   0  0  0  0  0  0
   27.2757  113.1256   50.0880 C   0  0  0  0  0  0
   26.5629  112.5662   52.5948 C   0  0  0  0  0  0
   27.8398  111.8041   50.0406 N   0  0  0  0  0  0
   27.4776  113.5912   53.1893 N   0  3  0  0  0  0
   28.5657  115.2418   55.3138 N   0  0  0  0  0  0
   25.5390  109.8588   45.7282 F   0  0  0  0  0  0
   24.0120  111.1662   46.5351 F   0  0  0  0  0  0
   23.6950  109.0286   46.4907 F   0  0  0  0  0  0
   27.3560  109.5870   52.0810 S   0  0  0  0  0  0
   24.6099  109.9825   46.6767 C   0  0  0  0  0  0
   32.3587  111.9056   51.0184 H   0  0  0  0  0  0
   32.0986  110.2654   52.8497 H   0  0  0  0  0  0
   30.4565  112.5962   49.7043 H   0  0  0  0  0  0
   29.8896  109.2842   53.3123 H   0  0  0  0  0  0
   25.2516  108.0958   50.9159 H   0  0  0  0  0  0
   24.1353  108.2031   48.7470 H   0  0  0  0  0  0
   26.5141  111.5610   47.6505 H   0  0  0  0  0  0
   28.5654  112.0593   54.0982 H   0  0  0  0  0  0
   27.2742  112.7861   55.0860 H   0  0  0  0  0  0
   26.0581  114.8925   54.1523 H   0  0  0  0  0  0
   26.5913  115.5369   52.6380 H   0  0  0  0  0  0
   29.5014  113.4653   55.9181 H   0  0  0  0  0  0
   29.9810  114.0568   54.3228 H   0  0  0  0  0  0
   28.8180  116.0829   53.4170 H   0  0  0  0  0  0
   27.5916  116.8538   54.3912 H   0  0  0  0  0  0
   25.4937  113.6825   51.1647 H   0  0  0  0  0  0
   26.0603  111.8792   51.0356 H   0  0  0  0  0  0
   26.8303  113.4563   49.1364 H   0  0  0  0  0  0
   28.0365  113.8612   50.3806 H   0  0  0  0  0  0
   25.6493  112.4905   53.1912 H   0  0  0  0  0  0
   26.9977  111.5632   52.5975 H   0  0  0  0  0  0
   27.9085  115.2317   56.0846 H   0  0  0  0  0  0
   28.2206  113.7377   52.5187 H   0  0  0  0  0  0
  1  2  2  0  0  0
  1  3  1  0  0  0
  1 28  1  0  0  0
  2  4  1  0  0  0
  2 29  1  0  0  0
  3  8  2  0  0  0
  3 30  1  0  0  0
  4 10  2  0  0  0
  4 31  1  0  0  0
  5  6  2  0  0  0
  5 11  1  0  0  0
  5 32  1  0  0  0
  6 12  1  0  0  0
  6 33  1  0  0  0
  7  9  1  0  0  0
  7 12  2  0  0  0
  7 34  1  0  0  0
  8 10  1  0  0  0
  8 20  1  0  0  0
  9 11  2  0  0  0
  9 20  1  0  0  0
 10 26  1  0  0  0
 11 26  1  0  0  0
 12 27  1  0  0  0
 13 15  1  0  0  0
 13 21  1  0  0  0
 13 35  1  0  0  0
 13 36  1  0  0  0
 14 16  1  0  0  0
 14 21  1  0  0  0
 14 37  1  0  0  0
 14 38  1  0  0  0
 15 22  1  0  0  0
 15 39  1  0  0  0
 15 40  1  0  0  0
 16 22  1  0  0  0
 16 41  1  0  0  0
 16 42  1  0  0  0
 17 18  1  0  0  0
 17 19  1  0  0  0
 17 43  1  0  0  0
 17 44  1  0  0  0
 18 20  1  0  0  0
 18 45  1  0  0  0
 18 46  1  0  0  0
 19 21  1  0  0  0
 19 47  1  0  0  0
 19 48  1  0  0  0
 21 50  1  0  0  0
 22 49  1  0  0  0
 23 27  1  0  0  0
 24 27  1  0  0  0
 25 27  1  0  0  0
M  CHG  1  21   1
M  END
> <s_m_entry_id>
608

> <s_m_Source_Path>
/home/emilio/Dropbox/SAMPL9-eglab/mCD/ligsdfs

> <s_m_Source_File>
TFP1bpsS.sdf

> <i_m_Source_File_Index>
1

> <r_epik_Ionization_Penalty>
  0.1004

> <r_epik_State_Penalty>
  1.6660

> <i_epik_Tot_Q>
1

> <s_m_job_name>
ligprep_4

> <i_f3d_flags>
0

$$$$
