TFP1apsS
                    3D
 Schrodinger Suite 2019-4.
 50 53  0  0  1  0            999 V2000
   31.3205  111.6986   51.4425 C   0  0  0  0  0  0
   31.1657  110.7844   52.4775 C   0  0  0  0  0  0
   30.2389  112.0143   50.6223 C   0  0  0  0  0  0
   29.9329  110.1729   52.6756 C   0  0  0  0  0  0
   25.5355  108.8652   50.2133 C   0  0  0  0  0  0
   24.9037  108.9255   48.9765 C   0  0  0  0  0  0
   26.2583  110.8300   48.3989 C   0  0  0  0  0  0
   28.9697  111.4287   50.8084 C   0  0  0  0  0  0
   26.9039  110.8114   49.6534 C   0  0  0  0  0  0
   28.8502  110.4773   51.8469 C   0  0  0  0  0  0
   26.5300  109.7855   50.5475 C   0  0  0  0  0  0
   25.2681  109.9055   48.0522 C   0  0  0  0  0  0
   27.8652  113.0314   54.5960 C   0  0  0  0  0  0
   27.0103  114.9921   53.4303 C   0  0  0  0  0  0
   28.8098  113.9318   55.4092 C   0  0  0  0  0  0
   27.9407  115.9066   54.2573 C   0  0  0  0  0  0
   26.3360  113.1025   51.2235 C   0  0  0  0  0  0
   27.2696  113.1306   50.0304 C   0  0  0  0  0  0
   26.6427  112.6893   52.6275 C   0  0  0  0  0  0
   27.8396  111.8030   50.0413 N   0  0  0  0  0  0
   27.5606  113.6426   53.2921 N   0  0  0  0  0  0
   28.2309  115.2845   55.5663 N   0  3  0  0  0  0
   24.1199  111.2286   46.4932 F   0  0  0  0  0  0
   23.5858  109.1365   46.5496 F   0  0  0  0  0  0
   25.4950  109.7385   45.7319 F   0  0  0  0  0  0
   27.3568  109.5878   52.0813 S   0  0  0  0  0  0
   24.5969  109.9973   46.6827 C   0  0  0  0  0  0
   32.2788  112.1684   51.2770 H   0  0  0  0  0  0
   32.0017  110.5400   53.1158 H   0  0  0  0  0  0
   30.4253  112.7317   49.8423 H   0  0  0  0  0  0
   29.8260  109.4437   53.4657 H   0  0  0  0  0  0
   25.2599  108.0856   50.9087 H   0  0  0  0  0  0
   24.1405  108.1980   48.7419 H   0  0  0  0  0  0
   26.5009  111.5757   47.6591 H   0  0  0  0  0  0
   28.3481  112.0633   54.4188 H   0  0  0  0  0  0
   26.9135  112.8758   55.1066 H   0  0  0  0  0  0
   26.0194  114.9193   53.8827 H   0  0  0  0  0  0
   26.8818  115.4510   52.4405 H   0  0  0  0  0  0
   28.9426  113.4802   56.4018 H   0  0  0  0  0  0
   29.8012  114.0045   54.9502 H   0  0  0  0  0  0
   28.8785  116.1126   53.7304 H   0  0  0  0  0  0
   27.4569  116.8750   54.4194 H   0  0  0  0  0  0
   26.5349  114.0770   51.4347 H   0  0  0  0  0  0
   25.2828  113.0425   50.9772 H   0  0  0  0  0  0
   26.7900  113.4312   49.1038 H   0  0  0  0  0  0
   28.0301  113.8798   50.2538 H   0  0  0  0  0  0
   25.7341  112.5049   53.1882 H   0  0  0  0  0  0
   27.1542  111.7417   52.5087 H   0  0  0  0  0  0
   27.3620  115.2041   56.0756 H   0  0  0  0  0  0
   28.8656  115.8691   56.0907 H   0  0  0  0  0  0
  1  2  2  0  0  0
  1  3  1  0  0  0
  1 28  1  0  0  0
  2  4  1  0  0  0
  2 29  1  0  0  0
  3  8  2  0  0  0
  3 30  1  0  0  0
  4 10  2  0  0  0
  4 31  1  0  0  0
  5  6  2  0  0  0
  5 11  1  0  0  0
  5 32  1  0  0  0
  6 12  1  0  0  0
  6 33  1  0  0  0
  7  9  1  0  0  0
  7 12  2  0  0  0
  7 34  1  0  0  0
  8 10  1  0  0  0
  8 20  1  0  0  0
  9 11  2  0  0  0
  9 20  1  0  0  0
 10 26  1  0  0  0
 11 26  1  0  0  0
 12 27  1  0  0  0
 13 15  1  0  0  0
 13 21  1  0  0  0
 13 35  1  0  0  0
 13 36  1  0  0  0
 14 16  1  0  0  0
 14 21  1  0  0  0
 14 37  1  0  0  0
 14 38  1  0  0  0
 15 22  1  0  0  0
 15 39  1  0  0  0
 15 40  1  0  0  0
 16 22  1  0  0  0
 16 41  1  0  0  0
 16 42  1  0  0  0
 17 18  1  0  0  0
 17 19  1  0  0  0
 17 43  1  0  0  0
 17 44  1  0  0  0
 18 20  1  0  0  0
 18 45  1  0  0  0
 18 46  1  0  0  0
 19 21  1  0  0  0
 19 47  1  0  0  0
 19 48  1  0  0  0
 22 49  1  0  0  0
 22 50  1  0  0  0
 23 27  1  0  0  0
 24 27  1  0  0  0
 25 27  1  0  0  0
M  CHG  1  22   1
M  END
> <s_m_entry_id>
607

> <s_m_Source_Path>
/home/emilio/Dropbox/SAMPL9-eglab/mCD/ligsdfs

> <s_m_Source_File>
TFP1apsS.sdf

> <i_m_Source_File_Index>
1

> <r_epik_Ionization_Penalty>
  0.0078

> <r_epik_State_Penalty>
  0.0420

> <i_epik_Tot_Q>
1

> <s_m_job_name>
ligprep_4

> <i_f3d_flags>
0

$$$$
