@<TRIPOS>MOLECULE
LIG
147 154
SMALL
USER_CHARGES
@<TRIPOS>ATOM
      1 C1           10.975      5.501      1.308 aa            1 LIG        0.429587
      2 C2            9.906      5.181      0.265 ab            1 LIG        0.201964
      3 C3           10.478      4.258     -0.819 ad            1 LIG        0.216381
      4 C4           11.757      4.879     -1.391 ae            1 LIG        0.192567
      5 C5           12.764      5.152     -0.277 af            1 LIG        0.192567
      6 C6           13.949      5.967     -0.810 ah            1 LIG        0.180165
      7 C7           12.032      2.969      5.868 ai            1 LIG        0.429587
      8 C8           10.644      2.851      5.349 aj            1 LIG        0.201964
      9 C9           10.582      3.034      3.829 ak            1 LIG        0.216381
     10 C10          11.288      4.260      3.431 an            1 LIG        0.192567
     11 C11          12.723      4.231      3.955 ao            1 LIG        0.192567
     12 C12          13.618      5.427      3.625 ap            1 LIG        0.180165
     13 C13          15.437     -0.903      7.009 aq            1 LIG        0.429587
     14 C14          13.986     -1.333      6.971 av            1 LIG        0.201964
     15 C15          13.229     -0.412      6.009 aw            1 LIG        0.216381
     16 C16          13.420      0.837      6.460 ax            1 LIG        0.192567
     17 C17          14.904      1.396      6.570 ay            1 LIG        0.192567
     18 C18          15.121      2.708      7.213 az            1 LIG        0.180165
     19 C19          19.189     -2.627      3.669 bb            1 LIG        0.429587
     20 C20          18.386     -3.655      4.496 bc            1 LIG        0.201964
     21 C21          17.051     -3.029      4.869 bd            1 LIG        0.216381
     22 C22          17.277     -1.722      5.591 bf            1 LIG        0.192567
     23 C23          18.177     -0.801      4.771 bg            1 LIG        0.192567
     24 C24          18.610      0.440      5.611 bh            1 LIG        0.180165
     25 C25          19.009     -2.324     -1.639 bj            1 LIG        0.429587
     26 C26          18.626     -3.644     -0.974 bk            1 LIG        0.201964
     27 C27          18.047     -3.406      0.405 bl            1 LIG        0.216381
     28 C28          19.039     -2.628      1.238 bm            1 LIG        0.192567
     29 C29          19.375     -1.335      0.515 bn            1 LIG        0.192567
     30 C30          20.439     -0.479      1.245 bo            1 LIG        0.180165
     31 C31          16.071      0.636     -4.915 bp            1 LIG        0.429587
     32 C32          15.937     -0.889     -4.972 bq            1 LIG        0.201964
     33 C33          16.248     -1.483     -3.606 bs            1 LIG        0.216381
     34 C34          17.628     -1.041     -3.173 bt            1 LIG        0.192567
     35 C35          17.698      0.490     -3.141 bu            1 LIG        0.192567
     36 C36          19.079      1.036     -2.821 bv            1 LIG        0.180165
     37 C37          12.444      4.271     -3.634 bw            1 LIG        0.429587
     38 C38          11.970      3.092     -4.493 bx            1 LIG        0.201964
     39 C39          12.864      1.872     -4.258 by            1 LIG        0.216381
     40 C40          14.311      2.253     -4.501 bz            1 LIG        0.192567
     41 C41          14.734      3.488     -3.711 cb            1 LIG        0.192567
     42 C42          16.080      4.043     -4.152 ci            1 LIG        0.180165
     43 O1            8.783      4.575      0.907 cj            1 LIG       -0.741075
     44 O2            9.530      4.121     -1.882 ck            1 LIG       -0.741075
     45 O3           12.299      3.883     -2.279 cm            1 LIG       -0.544165
     46 O4           12.119      6.046      0.689 cn            1 LIG       -0.544165
     47 O5           14.910      6.073      0.207 ct            1 LIG       -0.741075
     48 O6           10.118      1.562      5.724 cw            1 LIG       -0.741075
     49 O7            9.183      3.067      3.419 da            1 LIG       -0.741075
     50 O8           11.306      4.287      1.980 db            1 LIG       -0.544165
     51 O9           12.652      4.157      5.407 dc            1 LIG       -0.544165
     52 O10          14.820      5.191      3.920 dd            1 LIG       -0.741075
     53 O11          13.865     -2.702      6.565 de            1 LIG       -0.741075
     54 O12          11.826     -0.713      6.034 df            1 LIG       -0.741075
     55 O13          12.786      1.828      5.432 dg            1 LIG       -0.544165
     56 O14          15.560      0.428      7.430 dh            1 LIG       -0.544165
     57 O15          14.494      2.740      8.498 di            1 LIG       -0.741075
     58 O16          18.177     -4.847      3.743 dj            1 LIG       -0.741075
     59 O17          16.293     -3.928      5.696 dk            1 LIG       -0.741075
     60 O18          15.981     -1.093      5.714 dl            1 LIG       -0.544165
     61 O19          19.379     -1.466      4.416 dm            1 LIG       -0.544165
     62 O20          19.351      1.331      4.816 dn            1 LIG       -0.741075
     63 O21          17.691     -4.343     -1.829 do            1 LIG       -0.741075
     64 O22          17.745     -4.662      1.013 dp            1 LIG       -0.741075
     65 O23          18.439     -2.350      2.487 dq            1 LIG       -0.544165
     66 O24          19.914     -1.607     -0.792 dr            1 LIG       -0.544165
     67 O25          21.579     -1.202      1.589 ds            1 LIG       -0.741075
     68 O26          14.581     -1.188     -5.398 dt            1 LIG       -0.741075
     69 O27          16.199     -2.921     -3.699 dv            1 LIG       -0.741075
     70 O28          17.839     -1.565     -1.854 dw            1 LIG       -0.544165
     71 O29          17.383      0.975     -4.473 dx            1 LIG       -0.544165
     72 O30          20.081      0.584     -3.722 dz            1 LIG       -0.741075
     73 O31          10.599      2.773     -4.186 ea            1 LIG       -0.741075
     74 O32          12.488      0.808     -5.154 eb            1 LIG       -0.741075
     75 O33          15.091      1.153     -4.046 ec            1 LIG       -0.544165
     76 O34          13.782      4.580     -3.947 ed            1 LIG       -0.544165
     77 O35          16.027      4.385     -5.538 ee            1 LIG       -0.741075
     78 H1           13.277      6.294      4.192 ef            1 LIG        0.065605
     79 H2           13.549      5.640      2.559 eg            1 LIG        0.065605
     80 H3            9.087      3.764      1.320 eh            1 LIG        0.491666
     81 H4            9.370      4.996     -2.243 ei            1 LIG        0.491666
     82 H5           15.152      5.183      0.472 ej            1 LIG        0.491666
     83 H6           10.673      0.893      5.317 ek            1 LIG        0.491666
     84 H7            8.771      3.818      3.852 el            1 LIG        0.491666
     85 H8           14.857      5.007      4.862 em            1 LIG        0.491666
     86 H9           14.252     -2.781      5.690 en            1 LIG        0.491666
     87 H10          11.519     -0.591      6.935 eo            1 LIG        0.491666
     88 H11          13.557      2.577      8.368 eq            1 LIG        0.491666
     89 H12          17.694     -4.608      2.949 es            1 LIG        0.491666
     90 H13          16.806     -4.094      6.490 et            1 LIG        0.491666
     91 H14          18.790      1.606      4.087 ev            1 LIG        0.491666
     92 H15          16.916     -3.784     -1.929 ew            1 LIG        0.491666
     93 H16          18.568     -5.148      1.100 ex            1 LIG        0.491666
     94 H17          21.980     -1.517      0.775 ey            1 LIG        0.491666
     95 H18          13.984     -0.839     -4.732 ez            1 LIG        0.491666
     96 H19          16.843     -3.191     -4.358 fa            1 LIG        0.491666
     97 H20          19.811      0.838     -4.607 fb            1 LIG        0.491666
     98 H21          10.558      2.533     -3.257 fc            1 LIG        0.491666
     99 H22          12.592      1.133     -6.051 fd            1 LIG        0.491666
    100 H23          15.799      3.590     -6.025 ff            1 LIG        0.491666
    101 H24          10.566      6.201      2.041 fg            1 LIG        0.064779
    102 H25           9.589      6.104     -0.212 fh            1 LIG        0.061814
    103 H26          10.699      3.295     -0.370 fi            1 LIG        0.054082
    104 H27          11.536      5.808     -1.913 fj            1 LIG        0.055721
    105 H28          13.109      4.199      0.226 fk            1 LIG        0.055721
    106 H29          14.420      5.458     -1.699 fl            1 LIG        0.065605
    107 H30          13.596      6.954     -1.194 fm            1 LIG        0.065605
    108 H31          12.002      2.982      6.970 fn            1 LIG        0.064779
    109 H32          10.020      3.608      5.806 fo            1 LIG        0.061814
    110 H33          11.071      2.166      3.332 fp            1 LIG        0.054082
    111 H34          10.754      5.142      3.814 fq            1 LIG        0.055721
    112 H35          13.230      3.342      3.571 fs            1 LIG        0.055721
    113 H36          15.995     -1.564      7.709 ft            1 LIG        0.064779
    114 H37          13.551     -1.223      7.963 fu            1 LIG        0.061814
    115 H38          13.629     -0.537      4.996 fv            1 LIG        0.054082
    116 H39          12.924      1.151      7.431 fw            1 LIG        0.055721
    117 H40          15.363      1.368      5.576 fx            1 LIG        0.055721
    118 H41          14.742      3.517      6.559 fy            1 LIG        0.065605
    119 H42          16.216      2.894      7.330 fz            1 LIG        0.065605
    120 H43          20.158     -3.038      3.398 gb            1 LIG        0.064779
    121 H44          18.935     -3.902      5.405 gc            1 LIG        0.061814
    122 H45          16.490     -2.823      3.959 gf            1 LIG        0.054082
    123 H46          17.722     -1.920      6.566 gg            1 LIG        0.055721
    124 H47          17.652     -0.442      3.882 gh            1 LIG        0.055721
    125 H48          17.726      0.938      6.031 gi            1 LIG        0.065605
    126 H49          19.223      0.092      6.473 gj            1 LIG        0.065605
    127 H50          19.529     -2.537     -2.589 gk            1 LIG        0.064779
    128 H51          19.513     -4.283     -0.858 gl            1 LIG        0.061814
    129 H52          17.130     -2.826      0.291 gm            1 LIG        0.054082
    130 H53          19.948     -3.211      1.372 gn            1 LIG        0.055721
    131 H54          18.470     -0.757      0.381 go            1 LIG        0.055721
    132 H55          20.685      0.372      0.638 gp            1 LIG        0.065605
    133 H56          19.961     -0.107      2.175 gq            1 LIG        0.065605
    134 H57          15.909      1.045     -5.919 gr            1 LIG        0.064779
    135 H58          16.650     -1.278     -5.718 gs            1 LIG        0.061814
    136 H59          15.535     -1.123     -2.871 gt            1 LIG        0.054082
    137 H60          18.378     -1.450     -3.880 gu            1 LIG        0.055721
    138 H61          16.948      0.861     -2.422 gv            1 LIG        0.055721
    139 H62          19.047      2.135     -2.858 gw            1 LIG        0.065605
    140 H63          19.356      0.760     -1.794 gx            1 LIG        0.065605
    141 H64          11.798      5.147     -3.824 gy            1 LIG        0.064779
    142 H65          12.037      3.365     -5.534 gz            1 LIG        0.061814
    143 H66          12.758      1.534     -3.211 hb            1 LIG        0.054082
    144 H67          14.473      2.421     -5.576 hd            1 LIG        0.055721
    145 H68          14.760      3.244     -2.636 hh            1 LIG        0.055721
    146 H69          16.870      3.297     -3.996 hi            1 LIG        0.065605
    147 H70          16.339      4.933     -3.558 hj            1 LIG        0.065605
@<TRIPOS>BOND
        1  1  2  1
        2  1  46  1
        3  1  50  1
        4  1  101  1
        5  2  3  1
        6  2  43  1
        7  2  102  1
        8  3  4  1
        9  3  44  1
        10  3  103  1
        11  4  5  1
        12  4  45  1
        13  4  104  1
        14  5  6  1
        15  5  46  1
        16  5  105  1
        17  6  47  1
        18  6  106  1
        19  6  107  1
        20  7  8  1
        21  7  51  1
        22  7  55  1
        23  7  108  1
        24  8  9  1
        25  8  48  1
        26  8  109  1
        27  9  10  1
        28  9  49  1
        29  9  110  1
        30  10  11  1
        31  10  50  1
        32  10  111  1
        33  11  12  1
        34  11  51  1
        35  11  112  1
        36  12  52  1
        37  12  78  1
        38  12  79  1
        39  13  14  1
        40  13  56  1
        41  13  60  1
        42  13  113  1
        43  14  15  1
        44  14  53  1
        45  14  114  1
        46  15  16  1
        47  15  54  1
        48  15  115  1
        49  16  17  1
        50  16  55  1
        51  16  116  1
        52  17  18  1
        53  17  56  1
        54  17  117  1
        55  18  57  1
        56  18  118  1
        57  18  119  1
        58  19  20  1
        59  19  61  1
        60  19  65  1
        61  19  120  1
        62  20  21  1
        63  20  58  1
        64  20  121  1
        65  21  22  1
        66  21  59  1
        67  21  122  1
        68  22  23  1
        69  22  60  1
        70  22  123  1
        71  23  24  1
        72  23  61  1
        73  23  124  1
        74  24  62  1
        75  24  125  1
        76  24  126  1
        77  25  26  1
        78  25  66  1
        79  25  70  1
        80  25  127  1
        81  26  27  1
        82  26  63  1
        83  26  128  1
        84  27  28  1
        85  27  64  1
        86  27  129  1
        87  28  29  1
        88  28  65  1
        89  28  130  1
        90  29  30  1
        91  29  66  1
        92  29  131  1
        93  30  67  1
        94  30  132  1
        95  30  133  1
        96  31  32  1
        97  31  71  1
        98  31  75  1
        99  31  134  1
        100  32  33  1
        101  32  68  1
        102  32  135  1
        103  33  34  1
        104  33  69  1
        105  33  136  1
        106  34  35  1
        107  34  70  1
        108  34  137  1
        109  35  36  1
        110  35  71  1
        111  35  138  1
        112  36  72  1
        113  36  139  1
        114  36  140  1
        115  37  38  1
        116  37  45  1
        117  37  76  1
        118  37  141  1
        119  38  39  1
        120  38  73  1
        121  38  142  1
        122  39  40  1
        123  39  74  1
        124  39  143  1
        125  40  41  1
        126  40  75  1
        127  40  144  1
        128  41  42  1
        129  41  76  1
        130  41  145  1
        131  42  77  1
        132  42  146  1
        133  42  147  1
        134  43  80  1
        135  44  81  1
        136  47  82  1
        137  48  83  1
        138  49  84  1
        139  52  85  1
        140  53  86  1
        141  54  87  1
        142  57  88  1
        143  58  89  1
        144  59  90  1
        145  62  91  1
        146  63  92  1
        147  64  93  1
        148  67  94  1
        149  68  95  1
        150  69  96  1
        151  72  97  1
        152  73  98  1
        153  74  99  1
        154  77  100  1
@<TRIPOS>SUBSTRUCTURE
       1 LIG             1 RESIDUE    0 **** ROOT      0
