@<TRIPOS>MOLECULE
LIG
147 154
SMALL
USER_CHARGES
@<TRIPOS>ATOM
      1 C1         26.5349  111.2312   50.6941 aa             2 LIG     0.429587
      2 C2         25.0911  110.7974   50.6356 ab             1 LIG     0.201964
      3 C3         24.2305  111.7513   49.7212 ad             2 LIG     0.216381
      4 C4         24.3804  113.2298   50.2813 ae             1 LIG     0.192567
      5 C5         25.7992  113.5575   50.2532 af             1 LIG     0.192567
      6 C6         26.0369  114.9155   50.7919 ah             0 LIG     0.180165
      7 C7         30.5955  109.6364   47.5759 ai             2 LIG     0.429587
      8 C8         29.5400  108.6301   48.0777 aj             1 LIG     0.201964
      9 C9         28.1992  109.3339   48.2616 ak             2 LIG     0.216381
     10 C10        28.4271  110.5542   49.2415 an             1 LIG     0.192567
     11 C11        29.5435  111.5272   48.6464 ao             1 LIG     0.192567
     12 C12        29.9794  112.6534   49.6158 ap             0 LIG     0.180165
     13 C13        31.1589  110.6142   42.2211 aq             2 LIG     0.429587
     14 C14        30.8337  109.1194   42.7467 av             1 LIG     0.201964
     15 C15        30.1478  109.1196   44.1722 aw             2 LIG     0.216381
     16 C16        30.9577  109.9583   45.1443 ax             1 LIG     0.192567
     17 C17        31.3340  111.3714   44.5268 ay             1 LIG     0.192567
     18 C18        32.3869  112.2236   45.3191 az             0 LIG     0.180165
     19 C19        27.3625  112.5480   39.0647 bb             2 LIG     0.429587
     20 C20        27.1836  111.1206   39.6515 bc             1 LIG     0.201964
     21 C21        27.8381  110.9270   40.9985 bd             2 LIG     0.216381
     22 C22        29.3929  111.3892   40.8575 bf             1 LIG     0.192567
     23 C23        29.4061  112.7985   40.3303 bg             1 LIG     0.192567
     24 C24        30.8608  113.3993   40.2773 bh             0 LIG     0.180165
     25 C25        23.4289  116.1582   40.0724 bj             2 LIG     0.429587
     26 C26        23.1367  114.7983   39.3874 bk             1 LIG     0.201964
     27 C27        24.3795  113.7779   39.5493 bl             2 LIG     0.216381
     28 C28        25.8277  114.3714   39.3541 bm             1 LIG     0.192567
     29 C29        25.8618  115.7976   40.1288 bn             1 LIG     0.192567
     30 C30        27.2141  116.5139   39.9847 bo             0 LIG     0.180165
     31 C31        21.8083  117.0983   45.1341 bp             2 LIG     0.429587
     32 C32        20.8537  116.5152   44.0475 bq             1 LIG     0.201964
     33 C33        21.4391  115.7428   42.9324 bs             2 LIG     0.216381
     34 C34        22.6061  116.6598   42.4281 bt             1 LIG     0.192567
     35 C35        23.5677  117.1836   43.5166 bu             1 LIG     0.192567
     36 C36        24.7088  118.1615   43.0871 bv             0 LIG     0.180165
     37 C37        22.6860  114.8878   49.8886 bw             1 LIG     0.429587
     38 C38        21.3275  114.5580   49.2767 bx             1 LIG     0.201964
     39 C39        21.4250  114.8010   47.7565 by             2 LIG     0.216381
     40 C40        22.1074  116.1993   47.3320 bz             1 LIG     0.192567
     41 C41        23.3505  116.4968   48.1200 cb             1 LIG     0.192567
     42 C42        23.8660  117.9455   48.0402 ci             0 LIG     0.180165
     43 O1         25.0166  109.3900   50.2798 cj             0 LIG     -0.741075
     44 O2         22.8285  111.3195   49.7044 ck             0 LIG     -0.741075
     45 O3         23.6244  114.0101   49.3452 cm             0 LIG     -0.544165
     46 O4         26.6122  112.6404   51.0761 cn             0 LIG     -0.544165
     47 O5         27.4172  115.1239   51.1356 ct             0 LIG     -0.741075
     48 O6         29.4112  107.5290   47.2150 cw             0 LIG     -0.741075
     49 O7         27.2118  108.4509   48.7274 da             0 LIG     -0.741075
     50 O8         27.1251  111.1234   49.4160 db             0 LIG     -0.544165
     51 O9         30.7450  110.7484   48.5011 dc             0 LIG     -0.544165
     52 O10        30.8071  112.1016   50.6296 dd             0 LIG     -0.741075
     53 O11        30.0040  108.3460   41.8924 de             0 LIG     -0.741075
     54 O12        29.9542  107.7477   44.7024 df             0 LIG     -0.741075
     55 O13        30.1734  110.1880   46.2921 dg             0 LIG     -0.544165
     56 O14        31.9769  111.2449   43.2006 dh             0 LIG     -0.544165
     57 O15        33.7546  111.9365   45.0289 di             0 LIG     -0.741075
     58 O16        25.7462  110.7247   39.6705 dj             0 LIG     -0.741075
     59 O17        27.6878  109.6078   41.5854 dk             0 LIG     -0.741075
     60 O18        30.0027  111.4257   42.1297 dl             0 LIG     -0.544165
     61 O19        28.7523  112.8282   39.0377 dm             0 LIG     -0.544165
     62 O20        30.6975  114.8494   40.1105 dn             0 LIG     -0.741075
     63 O21        21.8201  114.2682   39.8396 do             0 LIG     -0.741075
     64 O22        24.1409  112.6081   38.7515 dp             0 LIG     -0.741075
     65 O23        26.7743  113.4993   39.9683 dq             0 LIG     -0.544165
     66 O24        24.7453  116.6635   39.6452 dr             0 LIG     -0.544165
     67 O25        27.3419  117.6603   40.7923 ds             0 LIG     -0.741075
     68 O26        19.8864  115.6732   44.7275 dt             0 LIG     -0.741075
     69 O27        20.5255  115.4709   41.8419 dv             0 LIG     -0.741075
     70 O28        23.4130  115.8067   41.5008 dw             0 LIG     -0.544165
     71 O29        22.8117  117.9254   44.5269 dx             0 LIG     -0.544165
     72 O30        24.2498  119.5163   42.8365 dz             0 LIG     -0.741075
     73 O31        20.9272  113.1421   49.5834 ea             0 LIG     -0.741075
     74 O32        20.1206  114.6076   47.2513 eb             0 LIG     -0.741075
     75 O33        22.4940  116.1070   45.9665 ec             0 LIG     -0.544165
     76 O34        23.1569  116.1510   49.5229 ed             0 LIG     -0.544165
     77 O35        24.5831  118.2634   49.2226 ee             0 LIG     -0.741075
     78 H1         29.1083  113.1765   50.1491 ef             0 LIG     0.065605
     79 H2         30.5507  113.3739   49.1948 eg             0 LIG     0.065605
     80 H3         24.2487  108.9822   50.7781 eh             0 LIG     0.491666
     81 H4         22.1861  112.0901   49.4248 ei             0 LIG     0.491666
     82 H5         27.7398  114.2480   50.8844 ej             0 LIG     0.491666
     83 H6         28.9107  106.8873   47.7743 ek             0 LIG     0.491666
     84 H7         26.6061  108.9248   49.2878 el             0 LIG     0.491666
     85 H8         31.5022  111.6156   50.0801 em             0 LIG     0.491666
     86 H9         29.1334  108.8810   41.8916 en             0 LIG     0.491666
     87 H10        29.7687  107.9301   45.6686 eo             0 LIG     0.491666
     88 H11        33.7430  112.3320   44.0879 eq             0 LIG     0.491666
     89 H12        25.6456  109.7157   39.6065 es             0 LIG     0.491666
     90 H13        26.8367  109.4938   42.0632 et             0 LIG     0.491666
     91 H14        30.3408  114.9200   39.1661 ev             0 LIG     0.491666
     92 H15        21.7143  113.3748   39.3945 ew             0 LIG     0.491666
     93 H16        24.6027  111.8710   39.3480 ex             0 LIG     0.491666
     94 H17        26.5078  118.1937   40.5678 ey             0 LIG     0.491666
     95 H18        19.4390  115.2899   43.9301 ez             0 LIG     0.491666
     96 H19        21.0470  115.0839   41.1147 fa             0 LIG     0.491666
     97 H20        24.3497  120.0345   43.6933 fb             0 LIG     0.491666
     98 H21        19.9856  113.1047   49.8453 fc             0 LIG     0.491666
     99 H22        20.0301  115.1071   46.4115 fd             0 LIG     0.491666
    100 H23        23.9527  118.0108   49.9645 ff             0 LIG     0.491666
    101 H24        27.0626  110.5837   51.3934 fg             0 LIG     0.064779
    102 H25        24.7029  110.9462   51.6505 fh             0 LIG     0.061814
    103 H26        24.6481  111.8123   48.7893 fi             0 LIG     0.054082
    104 H27        23.9857  113.3058   51.2907 fj             0 LIG     0.055721
    105 H28        26.1830  113.5664   49.2081 fk             0 LIG     0.055721
    106 H29        25.7116  115.5911   49.9791 fl             0 LIG     0.065605
    107 H30        25.3642  115.0272   51.6349 fm             0 LIG     0.065605
    108 H31        31.5122  109.0714   47.5090 fn             0 LIG     0.064779
    109 H32        29.9222  108.3249   49.0640 fo             0 LIG     0.061814
    110 H33        27.8476  109.7131   47.2967 fp             0 LIG     0.054082
    111 H34        28.8059  110.2027   50.2241 fq             0 LIG     0.055721
    112 H35        29.2985  112.0408   47.7179 fs             0 LIG     0.055721
    113 H36        31.6855  110.5304   41.2436 ft             0 LIG     0.064779
    114 H37        31.8034  108.5403   42.8645 fu             0 LIG     0.061814
    115 H38        29.1233  109.5482   44.0374 fv             0 LIG     0.054082
    116 H39        31.8615  109.3499   45.3713 fw             0 LIG     0.055721
    117 H40        30.4303  111.9223   44.3218 fx             0 LIG     0.055721
    118 H41        32.1038  112.1017   46.3722 fy             0 LIG     0.065605
    119 H42        32.2265  113.2797   45.0227 fz             0 LIG     0.065605
    120 H43        26.9007  112.5365   38.0334 gb             0 LIG     0.064779
    121 H44        27.7318  110.4411   38.9246 gc             0 LIG     0.061814
    122 H45        27.4424  111.6918   41.6702 gf             0 LIG     0.054082
    123 H46        29.8885  110.7105   40.0904 gg             0 LIG     0.055721
    124 H47        28.9028  113.4562   40.9728 gh             0 LIG     0.055721
    125 H48        31.4667  113.1969   41.2074 gi             0 LIG     0.065605
    126 H49        31.3695  113.0239   39.4055 gj             0 LIG     0.065605
    127 H50        22.6243  116.8941   39.8275 gk             0 LIG     0.064779
    128 H51        23.0336  115.0570   38.2973 gl             0 LIG     0.061814
    129 H52        24.2468  113.5179   40.5986 gm             0 LIG     0.054082
    130 H53        26.0441  114.5780   38.3213 gn             0 LIG     0.055721
    131 H54        25.7678  115.5560   41.1811 go             0 LIG     0.055721
    132 H55        28.0443  115.8266   40.1260 gp             0 LIG     0.065605
    133 H56        27.3085  116.6820   38.8939 gq             0 LIG     0.065605
    134 H57        21.1890  117.7591   45.7422 gr             0 LIG     0.064779
    135 H58        20.2335  117.3932   43.6862 gs             0 LIG     0.061814
    136 H59        21.8776  114.8849   43.4516 gt             0 LIG     0.054082
    137 H60        22.1496  117.5493   42.0128 gu             0 LIG     0.055721
    138 H61        24.0522  116.2795   43.9669 gv             0 LIG     0.055721
    139 H62        25.4116  118.1592   43.8964 gw             0 LIG     0.065605
    140 H63        25.1935  117.7444   42.1701 gx             0 LIG     0.065605
    141 H64        22.7172  114.7748   50.9043 gy             0 LIG     0.064779
    142 H65        20.6276  115.2222   49.7169 gz             0 LIG     0.061814
    143 H66        22.0843  114.0619   47.2850 hb             0 LIG     0.054082
    144 H67        21.3170  116.9506   47.4509 hd             0 LIG     0.055721
    145 H68        24.1789  115.9564   47.6455 hh             0 LIG     0.055721
    146 H69        23.0087  118.6083   47.8698 hi             0 LIG     0.065605
    147 H70        24.4398  118.0638   47.1127 hj             0 LIG     0.065605
@<TRIPOS>BOND
        1  1  2  1
        2  1  46  1
        3  1  50  1
        4  1  101  1
        5  2  3  1
        6  2  43  1
        7  2  102  1
        8  3  4  1
        9  3  44  1
        10  3  103  1
        11  4  5  1
        12  4  45  1
        13  4  104  1
        14  5  6  1
        15  5  46  1
        16  5  105  1
        17  6  47  1
        18  6  106  1
        19  6  107  1
        20  7  8  1
        21  7  51  1
        22  7  55  1
        23  7  108  1
        24  8  9  1
        25  8  48  1
        26  8  109  1
        27  9  10  1
        28  9  49  1
        29  9  110  1
        30  10  11  1
        31  10  50  1
        32  10  111  1
        33  11  12  1
        34  11  51  1
        35  11  112  1
        36  12  52  1
        37  12  78  1
        38  12  79  1
        39  13  14  1
        40  13  56  1
        41  13  60  1
        42  13  113  1
        43  14  15  1
        44  14  53  1
        45  14  114  1
        46  15  16  1
        47  15  54  1
        48  15  115  1
        49  16  17  1
        50  16  55  1
        51  16  116  1
        52  17  18  1
        53  17  56  1
        54  17  117  1
        55  18  57  1
        56  18  118  1
        57  18  119  1
        58  19  20  1
        59  19  61  1
        60  19  65  1
        61  19  120  1
        62  20  21  1
        63  20  58  1
        64  20  121  1
        65  21  22  1
        66  21  59  1
        67  21  122  1
        68  22  23  1
        69  22  60  1
        70  22  123  1
        71  23  24  1
        72  23  61  1
        73  23  124  1
        74  24  62  1
        75  24  125  1
        76  24  126  1
        77  25  26  1
        78  25  66  1
        79  25  70  1
        80  25  127  1
        81  26  27  1
        82  26  63  1
        83  26  128  1
        84  27  28  1
        85  27  64  1
        86  27  129  1
        87  28  29  1
        88  28  65  1
        89  28  130  1
        90  29  30  1
        91  29  66  1
        92  29  131  1
        93  30  67  1
        94  30  132  1
        95  30  133  1
        96  31  32  1
        97  31  71  1
        98  31  75  1
        99  31  134  1
        100  32  33  1
        101  32  68  1
        102  32  135  1
        103  33  34  1
        104  33  69  1
        105  33  136  1
        106  34  35  1
        107  34  70  1
        108  34  137  1
        109  35  36  1
        110  35  71  1
        111  35  138  1
        112  36  72  1
        113  36  139  1
        114  36  140  1
        115  37  38  1
        116  37  45  1
        117  37  76  1
        118  37  141  1
        119  38  39  1
        120  38  73  1
        121  38  142  1
        122  39  40  1
        123  39  74  1
        124  39  143  1
        125  40  41  1
        126  40  75  1
        127  40  144  1
        128  41  42  1
        129  41  76  1
        130  41  145  1
        131  42  77  1
        132  42  146  1
        133  42  147  1
        134  43  80  1
        135  44  81  1
        136  47  82  1
        137  48  83  1
        138  49  84  1
        139  52  85  1
        140  53  86  1
        141  54  87  1
        142  57  88  1
        143  58  89  1
        144  59  90  1
        145  62  91  1
        146  63  92  1
        147  64  93  1
        148  67  94  1
        149  68  95  1
        150  69  96  1
        151  72  97  1
        152  73  98  1
        153  74  99  1
        154  77  100  1
@<TRIPOS>SUBSTRUCTURE
       1 LIG             1 RESIDUE    0 **** ROOT      0

