bCDH26DM
                    3D

189196  0  0  1  0            999 V2000
   23.6043  111.6934   42.0366  C    0  0  2  0  0  0
   23.8385  110.9545   40.7176  C    0  0  1  0  0  0
   25.3751  110.6502   40.4094  C    0  0  2  0  0  0
   26.3274  111.8357   40.7677  C    0  0  1  0  0  0
   25.9996  112.4341   42.2053  C    0  0  1  0  0  0
   26.8833  113.7227   42.4944  C    0  0  0  0  0  0
   22.0842  109.7128   46.7865  C    0  0  2  0  0  0
   21.4358  109.0510   45.5214  C    0  0  1  0  0  0
   22.4178  109.2126   44.3407  C    0  0  2  0  0  0
   22.6598  110.7600   44.0596  C    0  0  1  0  0  0
   23.1642  111.4017   45.3850  C    0  0  1  0  0  0
   23.3480  112.9682   45.2583  C    0  0  0  0  0  0
   25.9900  108.9924   50.3596  C    0  0  2  0  0  0
   25.1250  107.6932   49.9957  C    0  0  1  0  0  0
   24.5421  107.8449   48.5721  C    0  0  2  0  0  0
   23.8199  109.2425   48.4127  C    0  0  1  0  0  0
   24.7251  110.4224   48.7600  C    0  0  1  0  0  0
   23.9366  111.7990   48.8448  C    0  0  0  0  0  0
   31.2749  109.7054   50.0068  C    0  0  2  0  0  0
   30.7183  108.2848   50.4787  C    0  0  1  0  0  0
   29.3442  107.9757   49.8631  C    0  0  2  0  0  0
   28.4090  109.2049   50.0195  C    0  0  1  0  0  0
   28.9698  110.5024   49.4892  C    0  0  1  0  0  0
   28.0719  111.6917   49.8109  C    0  0  0  0  0  0
   34.7573  111.3358   46.2099  C    0  0  2  0  0  0
   35.1907  110.4344   47.4219  C    0  0  1  0  0  0
   34.0459  109.6213   48.0280  C    0  0  2  0  0  0
   32.7941  110.5425   48.3362  C    0  0  1  0  0  0
   32.4071  111.4807   47.0693  C    0  0  1  0  0  0
   31.3629  112.5098   47.5438  C    0  0  0  0  0  0
   33.4429  110.8141   40.9616  C    0  0  2  0  0  0
   34.4279  109.7228   41.4618  C    0  0  1  0  0  0
   34.3840  109.4741   42.9624  C    0  0  2  0  0  0
   34.6685  110.8050   43.7346  C    0  0  1  0  0  0
   33.7410  111.8971   43.1489  C    0  0  1  0  0  0
   34.2699  113.2598   43.6178  C    0  0  0  0  0  0
   28.3364  111.8041   39.5286  C    0  0  1  0  0  0
   29.0870  110.7000   38.6981  C    0  0  1  0  0  0
   30.3138  110.1766   39.5407  C    0  0  2  0  0  0
   31.1851  111.2950   40.2671  C    0  0  1  0  0  0
   30.3503  112.4386   40.9026  C    0  0  1  0  0  0
   31.1640  113.6622   41.0656  C    0  0  0  0  0  0
   23.0637  109.7872   40.6994  O    0  0  0  0  0  0
   25.5546  110.1553   39.0493  O    0  0  0  0  0  0
   25.2066  110.9527   37.8699  C    0  0  0  0  0  0
   27.7632  111.2938   40.7340  O    0  0  0  0  0  0
   24.6277  112.7621   42.2124  O    0  0  0  0  0  0
   26.6008  114.8750   41.6355  O    0  0  0  0  0  0
   27.7375  115.7465   41.2886  C    0  0  0  0  0  0
   21.1457  107.6624   45.7697  O    0  0  0  0  0  0
   21.8140  108.7054   43.0890  O    0  0  0  0  0  0
   22.0569  107.3073   42.7640  C    0  0  0  0  0  0
   23.7688  110.7533   43.1234  O    0  0  0  0  0  0
   22.2027  111.1102   46.4714  O    0  0  0  0  0  0
   24.4475  113.2571   46.2051  O    0  0  0  0  0  0
   24.7794  114.6808   46.1389  C    0  0  0  0  0  0
   25.9014  106.4945   50.1940  O    0  0  0  0  0  0
   23.7163  106.7038   48.1988  O    0  0  0  0  0  0
   22.5476  106.4110   49.0113  C    0  0  0  0  0  0
   23.4226  109.2541   47.0520  O    0  0  0  0  0  0
   25.3505  110.1878   50.0332  O    0  0  0  0  0  0
   22.7102  111.6098   49.6187  O    0  0  0  0  0  0
   21.8723  112.7666   49.8008  C    0  0  0  0  0  0
   31.6724  107.2758   50.0148  O    0  0  0  0  0  0
   28.7009  106.8860   50.4450  O    0  0  0  0  0  0
   28.9106  105.6265   49.8026  C    0  0  0  0  0  0
   27.1127  108.9176   49.5426  O    0  0  0  0  0  0
   30.2530  110.6977   50.2173  O    0  0  0  0  0  0
   28.7307  112.8777   49.4147  O    0  0  0  0  0  0
   27.9518  114.0619   49.5287  C    0  0  0  0  0  0
   36.2486  109.5891   46.8846  O    0  0  0  0  0  0
   34.4384  109.0539   49.2927  O    0  0  0  0  0  0
   35.0591  107.7276   49.3409  C    0  0  0  0  0  0
   31.6370  109.6748   48.6179  O    0  0  0  0  0  0
   33.5889  112.1389   46.5891  O    0  0  0  0  0  0
   31.6638  113.7779   46.9379  O    0  0  0  0  0  0
   30.8975  114.9326   47.4258  C    0  0  0  0  0  0
   34.1600  108.4318   40.7326  O    0  0  0  0  0  0
   35.2923  108.3591   43.3783  O    0  0  0  0  0  0
   36.7328  108.6681   43.3075  C    0  0  0  0  0  0
   34.3343  110.5516   45.1479  O    0  0  0  0  0  0
   33.8727  111.9621   41.6527  O    0  0  0  0  0  0
   35.6457  113.4748   43.2102  O    0  0  0  0  0  0
   36.1477  114.6797   43.6665  C    0  0  0  0  0  0
   28.3177  109.5956   38.1942  O    0  0  0  0  0  0
   31.2341  109.5009   38.6156  O    0  0  0  0  0  0
   31.0549  108.1385   38.5701  C    0  0  0  0  0  0
   32.0229  110.6015   41.2160  O    0  0  0  0  0  0
   29.2548  112.7742   39.9987  O    0  0  0  0  0  0
   31.6825  114.0859   39.7055  O    0  0  0  0  0  0
   32.6827  115.1480   39.7589  C    0  0  0  0  0  0
   22.4547  113.4950   45.4971  H    0  0  0  0  0  0
   23.6438  113.2942   44.2445  H    0  0  0  0  0  0
   22.9057  109.5905   41.6142  H    0  0  0  0  0  0
   24.1230  111.1104   37.7721  H    0  0  0  0  0  0
   25.6609  110.4816   37.0375  H    0  0  0  0  0  0
   25.7408  111.9188   37.9482  H    0  0  0  0  0  0
   28.4706  115.8754   42.1017  H    0  0  0  0  0  0
   27.3449  116.7771   41.0219  H    0  0  0  0  0  0
   28.3008  115.4176   40.4210  H    0  0  0  0  0  0
   21.9547  107.1175   45.4201  H    0  0  0  0  0  0
   21.4701  106.6015   43.4039  H    0  0  0  0  0  0
   23.1428  107.1667   42.7743  H    0  0  0  0  0  0
   21.7881  107.1120   41.7142  H    0  0  0  0  0  0
   25.4267  115.0039   46.9309  H    0  0  0  0  0  0
   23.8777  115.2890   46.3445  H    0  0  0  0  0  0
   25.2572  114.9797   45.1937  H    0  0  0  0  0  0
   26.9417  106.6642   50.1461  H    0  0  0  0  0  0
   22.8317  106.0956   50.0760  H    0  0  0  0  0  0
   22.0117  105.5757   48.5463  H    0  0  0  0  0  0
   21.8269  107.1994   49.0973  H    0  0  0  0  0  0
   21.0022  112.4524   50.3757  H    0  0  0  0  0  0
   21.5387  113.0747   48.8107  H    0  0  0  0  0  0
   22.4212  113.4898   50.4606  H    0  0  0  0  0  0
   31.6667  107.2157   49.0020  H    0  0  0  0  0  0
   28.5919  105.7869   48.7820  H    0  0  0  0  0  0
   28.3617  104.7705   50.3504  H    0  0  0  0  0  0
   29.9479  105.3321   49.8445  H    0  0  0  0  0  0
   28.5118  114.9443   49.3411  H    0  0  0  0  0  0
   27.4470  114.2241   50.5416  H    0  0  0  0  0  0
   27.1180  114.1352   48.8745  H    0  0  0  0  0  0
   35.8696  108.7296   46.7492  H    0  0  0  0  0  0
   34.3197  106.9961   49.0112  H    0  0  0  0  0  0
   35.2206  107.4766   50.4302  H    0  0  0  0  0  0
   35.9271  107.5800   48.6729  H    0  0  0  0  0  0
   31.2524  115.8671   46.9409  H    0  0  0  0  0  0
   30.8780  115.1120   48.5048  H    0  0  0  0  0  0
   29.8621  114.8171   47.0699  H    0  0  0  0  0  0
   34.5697  108.6637   39.8274  H    0  0  0  0  0  0
   37.0538  108.9993   42.2711  H    0  0  0  0  0  0
   37.2553  107.8504   43.6183  H    0  0  0  0  0  0
   36.9969  109.4192   44.0566  H    0  0  0  0  0  0
   37.1786  114.6348   43.7956  H    0  0  0  0  0  0
   35.7810  114.8748   44.6704  H    0  0  0  0  0  0
   35.9226  115.4661   42.9189  H    0  0  0  0  0  0
   28.2709  109.8317   37.2161  H    0  0  0  0  0  0
   30.0149  107.9374   38.5586  H    0  0  0  0  0  0
   31.5024  107.6745   39.4806  H    0  0  0  0  0  0
   31.5269  107.7446   37.6242  H    0  0  0  0  0  0
   33.6467  114.8091   40.1399  H    0  0  0  0  0  0
   32.2777  115.8003   40.5042  H    0  0  0  0  0  0
   32.7388  115.6329   38.7289  H    0  0  0  0  0  0
   22.6174  112.1684   42.0765  H    0  0  0  0  0  0
   23.5478  111.5094   39.8170  H    0  0  0  0  0  0
   25.7778  109.8042   40.9800  H    0  0  0  0  0  0
   26.1829  112.6815   40.0842  H    0  0  0  0  0  0
   26.2388  111.6006   42.8772  H    0  0  0  0  0  0
   26.7485  113.9334   43.5625  H    0  0  0  0  0  0
   27.9500  113.4914   42.3845  H    0  0  0  0  0  0
   21.3670  109.5360   47.5962  H    0  0  0  0  0  0
   20.5397  109.6372   45.2829  H    0  0  0  0  0  0
   23.3952  108.7278   44.4558  H    0  0  0  0  0  0
   21.7553  111.2460   43.6734  H    0  0  0  0  0  0
   24.1594  110.9945   45.6026  H    0  0  0  0  0  0
   26.2449  108.9684   51.4253  H    0  0  0  0  0  0
   24.2670  107.6056   50.6736  H    0  0  0  0  0  0
   25.4270  107.8556   47.9238  H    0  0  0  0  0  0
   23.0092  109.2031   49.1029  H    0  0  0  0  0  0
   25.4591  110.6332   48.0269  H    0  0  0  0  0  0
   23.6327  112.2037   47.9252  H    0  0  0  0  0  0
   24.5407  112.5905   49.3795  H    0  0  0  0  0  0
   32.0922  110.0265   50.7032  H    0  0  0  0  0  0
   30.6666  108.2383   51.5533  H    0  0  0  0  0  0
   29.4300  107.9496   48.8201  H    0  0  0  0  0  0
   28.3395  109.2257   51.1162  H    0  0  0  0  0  0
   29.0977  110.3680   48.3419  H    0  0  0  0  0  0
   27.1864  111.4598   49.1751  H    0  0  0  0  0  0
   27.8477  111.7289   50.9000  H    0  0  0  0  0  0
   35.5700  112.0617   45.8971  H    0  0  0  0  0  0
   35.6625  111.0449   48.1945  H    0  0  0  0  0  0
   33.8409  108.7635   47.3590  H    0  0  0  0  0  0
   33.0631  111.1673   49.2327  H    0  0  0  0  0  0
   32.0884  110.8210   46.2517  H    0  0  0  0  0  0
   30.3130  112.1480   47.3443  H    0  0  0  0  0  0
   31.3513  112.6564   48.6539  H    0  0  0  0  0  0
   33.5899  111.0405   39.9146  H    0  0  0  0  0  0
   35.3597  110.2409   41.3164  H    0  0  0  0  0  0
   33.4089  109.1225   43.2681  H    0  0  0  0  0  0
   35.6788  111.1647   43.6654  H    0  0  0  0  0  0
   32.6653  111.8309   43.4114  H    0  0  0  0  0  0
   33.6286  113.9602   43.1489  H    0  0  0  0  0  0
   34.2304  113.4016   44.6830  H    0  0  0  0  0  0
   27.5971  112.3106   38.9547  H    0  0  0  0  0  0
   29.4578  111.1936   37.7819  H    0  0  0  0  0  0
   29.9594  109.5026   40.3174  H    0  0  0  0  0  0
   31.7435  111.7612   39.4887  H    0  0  0  0  0  0
   30.0622  111.9412   41.8412  H    0  0  0  0  0  0
   31.8999  113.4935   41.7199  H    0  0  0  0  0  0
   30.4968  114.4153   41.5223  H    0  0  0  0  0  0
  1  2  1  0  0  0
  1 47  1  0  0  0
  1 53  1  0  0  0
  1143  1  0  0  0
  2  3  1  0  0  0
  2 43  1  0  0  0
  2144  1  0  0  0
  3  4  1  0  0  0
  3 44  1  0  0  0
  3145  1  0  0  0
  4  5  1  0  0  0
  4 46  1  0  0  0
  4146  1  0  0  0
  5  6  1  0  0  0
  5 47  1  0  0  0
  5147  1  0  0  0
  6 48  1  0  0  0
  6148  1  0  0  0
  6149  1  0  0  0
  7  8  1  0  0  0
  7 54  1  0  0  0
  7 60  1  0  0  0
  7150  1  0  0  0
  8  9  1  0  0  0
  8 50  1  0  0  0
  8151  1  0  0  0
  9 10  1  0  0  0
  9 51  1  0  0  0
  9152  1  0  0  0
 10 11  1  0  0  0
 10 53  1  0  0  0
 10153  1  0  0  0
 11 12  1  0  0  0
 11 54  1  0  0  0
 11154  1  0  0  0
 12 55  1  0  0  0
 12 92  1  0  0  0
 12 93  1  0  0  0
 13 14  1  0  0  0
 13 61  1  0  0  0
 13 67  1  0  0  0
 13155  1  0  0  0
 14 15  1  0  0  0
 14 57  1  0  0  0
 14156  1  0  0  0
 15 16  1  0  0  0
 15 58  1  0  0  0
 15157  1  0  0  0
 16 17  1  0  0  0
 16 60  1  0  0  0
 16158  1  0  0  0
 17 18  1  0  0  0
 17 61  1  0  0  0
 17159  1  0  0  0
 18 62  1  0  0  0
 18160  1  0  0  0
 18161  1  0  0  0
 19 20  1  0  0  0
 19 68  1  0  0  0
 19 74  1  0  0  0
 19162  1  0  0  0
 20 21  1  0  0  0
 20 64  1  0  0  0
 20163  1  0  0  0
 21 22  1  0  0  0
 21 65  1  0  0  0
 21164  1  0  0  0
 22 23  1  0  0  0
 22 67  1  0  0  0
 22165  1  0  0  0
 23 24  1  0  0  0
 23 68  1  0  0  0
 23166  1  0  0  0
 24 69  1  0  0  0
 24167  1  0  0  0
 24168  1  0  0  0
 25 26  1  0  0  0
 25 75  1  0  0  0
 25 81  1  0  0  0
 25169  1  0  0  0
 26 27  1  0  0  0
 26 71  1  0  0  0
 26170  1  0  0  0
 27 28  1  0  0  0
 27 72  1  0  0  0
 27171  1  0  0  0
 28 29  1  0  0  0
 28 74  1  0  0  0
 28172  1  0  0  0
 29 30  1  0  0  0
 29 75  1  0  0  0
 29173  1  0  0  0
 30 76  1  0  0  0
 30174  1  0  0  0
 30175  1  0  0  0
 31 32  1  0  0  0
 31 82  1  0  0  0
 31 88  1  0  0  0
 31176  1  0  0  0
 32 33  1  0  0  0
 32 78  1  0  0  0
 32177  1  0  0  0
 33 34  1  0  0  0
 33 79  1  0  0  0
 33178  1  0  0  0
 34 35  1  0  0  0
 34 81  1  0  0  0
 34179  1  0  0  0
 35 36  1  0  0  0
 35 82  1  0  0  0
 35180  1  0  0  0
 36 83  1  0  0  0
 36181  1  0  0  0
 36182  1  0  0  0
 37 38  1  0  0  0
 37 46  1  0  0  0
 37 89  1  0  0  0
 37183  1  0  0  0
 38 39  1  0  0  0
 38 85  1  0  0  0
 38184  1  0  0  0
 39 40  1  0  0  0
 39 86  1  0  0  0
 39185  1  0  0  0
 40 41  1  0  0  0
 40 88  1  0  0  0
 40186  1  0  0  0
 41 42  1  0  0  0
 41 89  1  0  0  0
 41187  1  0  0  0
 42 90  1  0  0  0
 42188  1  0  0  0
 42189  1  0  0  0
 43 94  1  0  0  0
 44 45  1  0  0  0
 45 95  1  0  0  0
 45 96  1  0  0  0
 45 97  1  0  0  0
 48 49  1  0  0  0
 49 98  1  0  0  0
 49 99  1  0  0  0
 49100  1  0  0  0
 50101  1  0  0  0
 51 52  1  0  0  0
 52102  1  0  0  0
 52103  1  0  0  0
 52104  1  0  0  0
 55 56  1  0  0  0
 56105  1  0  0  0
 56106  1  0  0  0
 56107  1  0  0  0
 57108  1  0  0  0
 58 59  1  0  0  0
 59109  1  0  0  0
 59110  1  0  0  0
 59111  1  0  0  0
 62 63  1  0  0  0
 63112  1  0  0  0
 63113  1  0  0  0
 63114  1  0  0  0
 64115  1  0  0  0
 65 66  1  0  0  0
 66116  1  0  0  0
 66117  1  0  0  0
 66118  1  0  0  0
 69 70  1  0  0  0
 70119  1  0  0  0
 70120  1  0  0  0
 70121  1  0  0  0
 71122  1  0  0  0
 72 73  1  0  0  0
 73123  1  0  0  0
 73124  1  0  0  0
 73125  1  0  0  0
 76 77  1  0  0  0
 77126  1  0  0  0
 77127  1  0  0  0
 77128  1  0  0  0
 78129  1  0  0  0
 79 80  1  0  0  0
 80130  1  0  0  0
 80131  1  0  0  0
 80132  1  0  0  0
 83 84  1  0  0  0
 84133  1  0  0  0
 84134  1  0  0  0
 84135  1  0  0  0
 85136  1  0  0  0
 86 87  1  0  0  0
 87137  1  0  0  0
 87138  1  0  0  0
 87139  1  0  0  0
 90 91  1  0  0  0
 91140  1  0  0  0
 91141  1  0  0  0
 91142  1  0  0  0
M  END
> <s_m_entry_id>
14

> <s_m_Source_Path>
/home/emilio/Dropbox/sims/SAMPL9/work/receptor

> <s_m_Source_File>
bCDH26DM.mol2

> <i_m_Source_File_Index>
1

$$$$

