@<TRIPOS>MOLECULE
LIG
147 154
SMALL
USER_CHARGES
@<TRIPOS>ATOM
      1 C1         28.1938  114.2474   48.4645 aa             2 LIG     0.429587
      2 C2         26.8216  113.5424   48.4497 ab             1 LIG     0.201964
      3 C3         26.1518  113.4750   47.0472 ad             2 LIG     0.216381
      4 C4         26.2064  114.9371   46.4537 ae             1 LIG     0.192567
      5 C5         27.7408  115.3886   46.3283 af             1 LIG     0.192567
      6 C6         27.9249  116.8470   45.7216 ah             0 LIG     0.180165
      7 C7         32.6460  111.2386   48.1284 ai             2 LIG     0.429587
      8 C8         31.6336  111.0384   49.2668 aj             1 LIG     0.201964
      9 C9         30.2589  111.6754   48.9546 ak             2 LIG     0.216381
     10 C10        30.3661  113.1209   48.3974 an             1 LIG     0.192567
     11 C11        31.5321  113.2658   47.3562 ao             1 LIG     0.192567
     12 C12        31.7987  114.7397   46.9052 ap             0 LIG     0.180165
     13 C13        33.8878  109.4160   43.3458 aq             2 LIG     0.429587
     14 C14        33.3586  108.2039   44.1376 av             1 LIG     0.201964
     15 C15        32.4578  108.7279   45.2827 aw             2 LIG     0.216381
     16 C16        33.2149  109.7727   46.1893 ax             1 LIG     0.192567
     17 C17        34.0616  110.8083   45.3548 ay             1 LIG     0.192567
     18 C18        35.2554  111.4784   46.1473 az             0 LIG     0.180165
     19 C19        31.9164  111.3129   38.6450 bb             2 LIG     0.429587
     20 C20        31.5933  109.8145   38.9659 bc             1 LIG     0.201964
     21 C21        31.8254  109.5898   40.5201 bd             2 LIG     0.216381
     22 C22        33.0854  110.3597   41.1973 bf             1 LIG     0.192567
     23 C23        33.0622  111.8702   40.8136 bg             1 LIG     0.192567
     24 C24        34.3241  112.6473   41.3696 bh             0 LIG     0.180165
     25 C25        28.6107  115.2807   36.9163 bj             2 LIG     0.429587
     26 C26        28.6699  113.9013   36.1250 bk             1 LIG     0.201964
     27 C27        29.1600  112.7499   37.1437 bl             2 LIG     0.216381
     28 C28        30.4360  113.1602   37.8610 bm             1 LIG     0.192567
     29 C29        30.1957  114.5437   38.5263 bn             1 LIG     0.192567
     30 C30        31.4747  115.1048   39.2781 bo             0 LIG     0.180165
     31 C31        24.2815  116.5515   39.7911 bp             2 LIG     0.429587
     32 C32        24.0853  115.4935   38.6342 bq             1 LIG     0.201964
     33 C33        25.5100  114.8305   38.2495 bs             2 LIG     0.216381
     34 C34        26.5659  115.9059   37.9355 bt             1 LIG     0.192567
     35 C35        26.6566  117.0365   39.0156 bu             1 LIG     0.192567
     36 C36        27.4959  118.2898   38.5979 bv             0 LIG     0.180165
     37 C37        24.2668  115.3655   45.1183 bw             1 LIG     0.429587
     38 C38        23.4636  114.4267   44.2026 bx             1 LIG     0.201964
     39 C39        23.8856  114.5065   42.6802 by             2 LIG     0.216381
     40 C40        24.0917  115.9753   42.2172 bz             1 LIG     0.192567
     41 C41        24.9055  116.8226   43.1758 cb             1 LIG     0.192567
     42 C42        24.8406  118.3176   42.7409 ci             0 LIG     0.180165
     43 O1         26.8736  112.2790   49.1387 cj             0 LIG     -0.741075
     44 O2         24.7463  113.0078   47.2272 ck             0 LIG     -0.741075
     45 O3         25.5937  114.8707   45.1372 cm             0 LIG     -0.544165
     46 O4         28.1696  115.4985   47.7306 cn             0 LIG     -0.544165
     47 O5         29.3164  117.2015   45.8400 ct             0 LIG     -0.741075
     48 O6         31.3911  109.6558   49.6897 cw             0 LIG     -0.741075
     49 O7         29.2922  111.6070   50.0155 da             0 LIG     -0.741075
     50 O8         29.1106  113.3989   47.7759 db             0 LIG     -0.544165
     51 O9         32.7627  112.6576   47.8061 dc             0 LIG     -0.544165
     52 O10        32.3724  115.4915   47.9711 dd             0 LIG     -0.741075
     53 O11        32.7387  107.1799   43.2748 de             0 LIG     -0.741075
     54 O12        32.0580  107.5314   46.1319 df             0 LIG     -0.741075
     55 O13        32.2268  110.4853   47.0367 dg             0 LIG     -0.544165
     56 O14        34.6393  110.1816   44.2226 dh             0 LIG     -0.544165
     57 O15        36.2557  110.3894   46.4111 di             0 LIG     -0.741075
     58 O16        30.3117  109.3457   38.5539 dj             0 LIG     -0.741075
     59 O17        31.8989  108.1261   40.8491 dk             0 LIG     -0.741075
     60 O18        32.9110  110.1847   42.6343 dl             0 LIG     -0.544165
     61 O19        33.1154  111.8507   39.3834 dm             0 LIG     -0.544165
     62 O20        34.3693  113.9889   40.7883 dn             0 LIG     -0.741075
     63 O21        27.4355  113.5469   35.5439 do             0 LIG     -0.741075
     64 O22        29.3957  111.5207   36.4249 dp             0 LIG     -0.741075
     65 O23        30.7902  112.1670   38.9172 dq             0 LIG     -0.544165
     66 O24        29.8761  115.4929   37.5445 dr             0 LIG     -0.544165
     67 O25        32.5555  115.4573   38.3225 ds             0 LIG     -0.741075
     68 O26        23.0711  114.5115   39.0457 dt             0 LIG     -0.741075
     69 O27        25.3933  113.9193   37.1480 dv             0 LIG     -0.741075
     70 O28        27.7345  115.0802   37.9568 dw             0 LIG     -0.544165
     71 O29        25.2811  117.5407   39.3500 dx             0 LIG     -0.544165
     72 O30        27.4172  119.4091   39.5259 dz             0 LIG     -0.741075
     73 O31        23.6023  113.0584   44.6712 ea             0 LIG     -0.741075
     74 O32        23.1715  113.6678   41.6649 eb             0 LIG     -0.741075
     75 O33        24.7896  115.8030   40.9307 ec             0 LIG     -0.544165
     76 O34        24.3284  116.6918   44.4988 ed             0 LIG     -0.544165
     77 O35        25.4680  119.0669   43.7383 ee             0 LIG     -0.741075
     78 H1         30.8358  115.1683   46.5688 ef             0 LIG     0.065605
     79 H2         32.4222  114.5934   46.0028 eg             0 LIG     0.065605
     80 H3         27.8213  112.0926   49.3581 eh             0 LIG     0.491666
     81 H4         24.8823  112.0774   47.6312 ei             0 LIG     0.491666
     82 H5         29.5383  116.6540   46.6336 ej             0 LIG     0.491666
     83 H6         32.3149  109.3088   50.0188 ek             0 LIG     0.491666
     84 H7         29.7364  111.9444   50.8136 el             0 LIG     0.491666
     85 H8         33.0657  114.9615   48.4788 em             0 LIG     0.491666
     86 H9         33.1693  106.3085   43.5852 en             0 LIG     0.491666
     87 H10        31.5938  107.0347   45.4973 eo             0 LIG     0.491666
     88 H11        36.1298  109.7811   45.6371 eq             0 LIG     0.491666
     89 H12        30.3978  109.3590   37.5522 es             0 LIG     0.491666
     90 H13        32.5419  108.0270   41.5941 et             0 LIG     0.491666
     91 H14        35.1334  114.4021   41.2697 ev             0 LIG     0.491666
     92 H15        26.7715  113.6950   36.2531 ew             0 LIG     0.491666
     93 H16        28.5176  111.3255   36.0517 ex             0 LIG     0.491666
     94 H17        32.0928  116.0650   37.6817 ey             0 LIG     0.491666
     95 H18        23.0968  114.5373   40.0151 ez             0 LIG     0.491666
     96 H19        24.7892  113.1896   37.4430 fa             0 LIG     0.491666
     97 H20        26.4705  119.4148   39.8256 fb             0 LIG     0.491666
     98 H21        24.2449  113.1160   45.4621 fc             0 LIG     0.491666
     99 H22        22.2808  113.4824   42.1114 fd             0 LIG     0.491666
    100 H23        25.0088  118.8244   44.5813 ff             0 LIG     0.491666
    101 H24        28.5633  114.3885   49.4530 fg             0 LIG     0.064779
    102 H25        26.0753  114.2445   48.9687 fh             0 LIG     0.061814
    103 H26        26.6939  112.7841   46.4582 fi             0 LIG     0.054082
    104 H27        25.6909  115.6722   47.0978 fj             0 LIG     0.055721
    105 H28        28.3937  114.5998   45.7983 fk             0 LIG     0.055721
    106 H29        27.6378  116.8022   44.6523 fl             0 LIG     0.065605
    107 H30        27.2540  117.5726   46.1571 fm             0 LIG     0.065605
    108 H31        33.6308  110.8905   48.4232 fn             0 LIG     0.064779
    109 H32        32.0223  111.6112   50.1324 fo             0 LIG     0.061814
    110 H33        29.9141  111.0655   48.1495 fp             0 LIG     0.054082
    111 H34        30.6514  113.7308   49.2075 fq             0 LIG     0.055721
    112 H35        31.2316  112.7142   46.4407 fs             0 LIG     0.055721
    113 H36        34.6607  109.1120   42.6491 ft             0 LIG     0.064779
    114 H37        34.1951  107.8032   44.7363 fu             0 LIG     0.061814
    115 H38        31.5330  109.1728   44.8176 fv             0 LIG     0.054082
    116 H39        33.9077  109.2167   46.8662 fw             0 LIG     0.055721
    117 H40        33.4347  111.6605   45.0464 fx             0 LIG     0.055721
    118 H41        34.9301  112.1420   46.9466 fy             0 LIG     0.065605
    119 H42        35.6369  112.1032   45.3763 fz             0 LIG     0.065605
    120 H43        32.1118  111.3306   37.5212 gb             0 LIG     0.064779
    121 H44        32.4123  109.3420   38.4379 gc             0 LIG     0.061814
    122 H45        30.9392  110.0673   40.9857 gf             0 LIG     0.054082
    123 H46        34.1021  109.9226   40.8684 gg             0 LIG     0.055721
    124 H47        32.2177  112.3693   41.3201 gh             0 LIG     0.055721
    125 H48        34.2481  112.6304   42.4713 gi             0 LIG     0.065605
    126 H49        35.2002  112.0699   41.0447 gj             0 LIG     0.065605
    127 H50        28.3022  116.0538   36.2467 gk             0 LIG     0.064779
    128 H51        29.4157  114.0108   35.3307 gl             0 LIG     0.061814
    129 H52        28.3589  112.7229   37.9124 gm             0 LIG     0.054082
    130 H53        31.2376  113.0828   37.1256 gn             0 LIG     0.055721
    131 H54        29.4590  114.4498   39.3086 go             0 LIG     0.055721
    132 H55        31.1940  115.9608   39.8913 gp             0 LIG     0.065605
    133 H56        31.8196  114.3163   39.9450 gq             0 LIG     0.065605
    134 H57        23.3836  117.0284   40.0977 gr             0 LIG     0.064779
    135 H58        23.7945  115.9720   37.6987 gs             0 LIG     0.061814
    136 H59        25.9109  114.2877   39.0831 gt             0 LIG     0.054082
    137 H60        26.2960  116.3588   36.9817 gu             0 LIG     0.055721
    138 H61        27.1407  116.7101   39.9005 gv             0 LIG     0.055721
    139 H62        28.4914  117.9308   38.4484 gw             0 LIG     0.065605
    140 H63        27.1951  118.6247   37.6178 gx             0 LIG     0.065605
    141 H64        23.8555  115.3562   46.1742 gy             0 LIG     0.064779
    142 H65        22.4784  114.7550   44.3131 gz             0 LIG     0.061814
    143 H66        24.9374  114.2041   42.7559 hb             0 LIG     0.054082
    144 H67        23.1276  116.4522   42.0016 hd             0 LIG     0.055721
    145 H68        25.9423  116.4780   43.2741 hh             0 LIG     0.055721
    146 H69        23.8696  118.7821   42.5290 hi             0 LIG     0.065605
    147 H70        25.4135  118.3886   41.8080 hj             0 LIG     0.065605
@<TRIPOS>BOND
        1  1  2  1
        2  1  46  1
        3  1  50  1
        4  1  101  1
        5  2  3  1
        6  2  43  1
        7  2  102  1
        8  3  4  1
        9  3  44  1
        10  3  103  1
        11  4  5  1
        12  4  45  1
        13  4  104  1
        14  5  6  1
        15  5  46  1
        16  5  105  1
        17  6  47  1
        18  6  106  1
        19  6  107  1
        20  7  8  1
        21  7  51  1
        22  7  55  1
        23  7  108  1
        24  8  9  1
        25  8  48  1
        26  8  109  1
        27  9  10  1
        28  9  49  1
        29  9  110  1
        30  10  11  1
        31  10  50  1
        32  10  111  1
        33  11  12  1
        34  11  51  1
        35  11  112  1
        36  12  52  1
        37  12  78  1
        38  12  79  1
        39  13  14  1
        40  13  56  1
        41  13  60  1
        42  13  113  1
        43  14  15  1
        44  14  53  1
        45  14  114  1
        46  15  16  1
        47  15  54  1
        48  15  115  1
        49  16  17  1
        50  16  55  1
        51  16  116  1
        52  17  18  1
        53  17  56  1
        54  17  117  1
        55  18  57  1
        56  18  118  1
        57  18  119  1
        58  19  20  1
        59  19  61  1
        60  19  65  1
        61  19  120  1
        62  20  21  1
        63  20  58  1
        64  20  121  1
        65  21  22  1
        66  21  59  1
        67  21  122  1
        68  22  23  1
        69  22  60  1
        70  22  123  1
        71  23  24  1
        72  23  61  1
        73  23  124  1
        74  24  62  1
        75  24  125  1
        76  24  126  1
        77  25  26  1
        78  25  66  1
        79  25  70  1
        80  25  127  1
        81  26  27  1
        82  26  63  1
        83  26  128  1
        84  27  28  1
        85  27  64  1
        86  27  129  1
        87  28  29  1
        88  28  65  1
        89  28  130  1
        90  29  30  1
        91  29  66  1
        92  29  131  1
        93  30  67  1
        94  30  132  1
        95  30  133  1
        96  31  32  1
        97  31  71  1
        98  31  75  1
        99  31  134  1
        100  32  33  1
        101  32  68  1
        102  32  135  1
        103  33  34  1
        104  33  69  1
        105  33  136  1
        106  34  35  1
        107  34  70  1
        108  34  137  1
        109  35  36  1
        110  35  71  1
        111  35  138  1
        112  36  72  1
        113  36  139  1
        114  36  140  1
        115  37  38  1
        116  37  45  1
        117  37  76  1
        118  37  141  1
        119  38  39  1
        120  38  73  1
        121  38  142  1
        122  39  40  1
        123  39  74  1
        124  39  143  1
        125  40  41  1
        126  40  75  1
        127  40  144  1
        128  41  42  1
        129  41  76  1
        130  41  145  1
        131  42  77  1
        132  42  146  1
        133  42  147  1
        134  43  80  1
        135  44  81  1
        136  47  82  1
        137  48  83  1
        138  49  84  1
        139  52  85  1
        140  53  86  1
        141  54  87  1
        142  57  88  1
        143  58  89  1
        144  59  90  1
        145  62  91  1
        146  63  92  1
        147  64  93  1
        148  67  94  1
        149  68  95  1
        150  69  96  1
        151  72  97  1
        152  73  98  1
        153  74  99  1
        154  77  100  1
@<TRIPOS>SUBSTRUCTURE
       1 LIG             1 RESIDUE    0 **** ROOT      0

