PMZ1appR
                    3D
 Schrodinger Suite 2019-4.
 41 43  0  0  1  0            999 V2000
   22.3431  113.0081   52.2044 C   0  0  0  0  0  0
   20.4594  119.6136   50.7712 C   0  0  0  0  0  0
   21.0215  112.5489   52.2409 C   0  0  0  0  0  0
   19.0821  119.3712   50.6060 C   0  0  0  0  0  0
   22.6141  114.1547   51.4076 C   0  0  0  0  0  0
   21.3539  118.5830   50.6387 C   0  0  0  0  0  0
   19.9257  113.3097   51.6984 C   0  0  0  0  0  0
   18.6252  118.0774   50.4803 C   0  0  0  0  0  0
   21.5635  114.9469   50.8443 C   0  0  0  0  0  0
   20.9083  117.2079   50.4587 C   0  0  0  0  0  0
   20.2313  114.4982   50.9937 C   0  0  0  0  0  0
   19.5126  116.9677   50.5536 C   0  0  0  0  0  0
   26.7740  118.0392   47.3356 C   0  0  0  0  0  0
   25.3541  118.1398   45.2817 C   0  0  0  0  0  0
   23.7748  117.1210   48.7573 C   0  0  0  0  0  0
   22.5437  116.0214   48.9478 C   0  0  0  0  0  0
   24.3079  117.1044   47.3034 C   0  0  0  0  0  0
   21.8703  116.1685   50.2491 N   0  0  0  0  0  0
   25.3589  118.2185   46.8029 N   0  3  0  0  0  0
   18.8373  115.3362   50.4107 S   0  0  0  0  0  0
   23.0894  112.4080   52.7344 H   0  0  0  0  0  0
   20.8020  120.6559   50.9364 H   0  0  0  0  0  0
   20.7743  111.6867   52.8344 H   0  0  0  0  0  0
   18.3722  120.2185   50.6387 H   0  0  0  0  0  0
   23.5951  114.5374   51.3356 H   0  0  0  0  0  0
   22.4132  118.7112   50.7316 H   0  0  0  0  0  0
   18.8962  112.9582   51.8705 H   0  0  0  0  0  0
   17.5379  117.8773   50.3064 H   0  0  0  0  0  0
   27.2659  117.0998   47.0052 H   0  0  0  0  0  0
   26.6755  118.1794   48.4172 H   0  0  0  0  0  0
   27.2747  118.8720   46.8732 H   0  0  0  0  0  0
   24.7886  117.2313   44.9873 H   0  0  0  0  0  0
   26.3419  118.1819   44.8428 H   0  0  0  0  0  0
   24.8152  119.0339   44.8703 H   0  0  0  0  0  0
   23.3496  118.1400   48.9284 H   0  0  0  0  0  0
   24.5075  117.0107   49.5377 H   0  0  0  0  0  0
   21.7782  115.9080   48.1057 H   0  0  0  0  0  0
   23.0937  115.0171   49.0824 H   0  0  0  0  0  0
   24.8038  116.1103   47.1676 H   0  0  0  0  0  0
   23.4460  117.2448   46.6953 H   0  0  0  0  0  0
   25.0572  119.1890   47.0844 H   0  0  0  0  0  0
  1  3  2  0  0  0
  1  5  1  0  0  0
  1 21  1  0  0  0
  2  4  2  0  0  0
  2  6  1  0  0  0
  2 22  1  0  0  0
  3  7  1  0  0  0
  3 23  1  0  0  0
  4  8  1  0  0  0
  4 24  1  0  0  0
  5  9  2  0  0  0
  5 25  1  0  0  0
  6 10  2  0  0  0
  6 26  1  0  0  0
  7 11  2  0  0  0
  7 27  1  0  0  0
  8 12  2  0  0  0
  8 28  1  0  0  0
  9 11  1  0  0  0
  9 18  1  0  0  0
 10 12  1  0  0  0
 10 18  1  0  0  0
 11 20  1  0  0  0
 12 20  1  0  0  0
 13 19  1  0  0  0
 13 29  1  0  0  0
 13 30  1  0  0  0
 13 31  1  0  0  0
 14 19  1  0  0  0
 14 32  1  0  0  0
 14 33  1  0  0  0
 14 34  1  0  0  0
 15 16  1  0  0  0
 15 17  1  0  0  0
 15 35  1  0  0  0
 15 36  1  0  0  0
 16 18  1  0  0  0
 16 37  1  0  0  0
 16 38  1  0  0  0
 17 19  1  0  0  0
 17 39  1  0  0  0
 17 40  1  0  0  0
 19 41  1  0  0  0
M  CHG  1  19   1
M  END
> <i_m_stars>
0

> <s_m_entry_id>
653

> <s_m_Source_Path>
/home/emilio/Dropbox/sims/SAMPL9/work/FFEngine/postc/mCDppRf/ligands

> <s_m_Source_File>
PMZ1appR-q.sdf

> <i_m_Source_File_Index>
1

> <r_epik_Ionization_Penalty>
  0.0034

> <r_epik_State_Penalty>
  0.0024

> <i_epik_Tot_Q>
1

> <s_m_job_name>
ligprep_4

> <i_f3d_flags>
0

$$$$
