TDZNR1appR
                    3D
 Schrodinger Suite 2019-4.
 52 55  0  0  1  0            999 V2000
   22.3658  112.9979   52.2130 C   0  0  0  0  0  0
   21.0409  112.5540   52.3771 C   0  0  0  0  0  0
   22.6348  114.1575   51.4572 C   0  0  0  0  0  0
   19.9819  113.2678   51.7877 C   0  0  0  0  0  0
   18.6567  118.0675   50.8771 C   0  0  0  0  0  0
   19.1650  119.3490   51.1453 C   0  0  0  0  0  0
   21.4344  118.5088   50.8337 C   0  0  0  0  0  0
   21.5758  114.9021   50.8850 C   0  0  0  0  0  0
   20.9358  117.2274   50.5270 C   0  0  0  0  0  0
   20.2444  114.4380   51.0513 C   0  0  0  0  0  0
   19.5399  117.0068   50.5901 C   0  0  0  0  0  0
   20.5554  119.5671   51.1406 C   0  0  0  0  0  0
   25.8956  118.5287   45.9770 C   0  0  0  0  0  0
   25.2414  118.1316   44.6516 C   0  0  0  0  0  0
   24.8383  118.5970   47.0864 C   0  0  0  0  0  0
   24.4757  116.8106   44.8073 C   0  0  0  0  0  0
   24.0463  117.2730   47.2208 C   0  0  1  0  0  0
   22.6130  115.6683   45.9186 C   0  0  0  0  0  0
   19.7601  122.2357   51.9041 C   0  0  0  0  0  0
   22.9562  117.3542   48.3280 C   0  0  0  0  0  0
   23.0193  116.2855   49.4530 C   0  0  0  0  0  0
   21.7953  116.1423   50.2565 N   0  0  0  0  0  0
   23.4582  116.8903   45.8919 N   0  3  2  0  0  0
   18.8897  115.3725   50.3947 S   0  0  0  0  0  0
   21.1841  121.1636   51.5510 S   0  0  0  0  0  0
   23.1728  112.4726   52.7021 H   0  0  0  0  0  0
   20.8335  111.6889   52.9914 H   0  0  0  0  0  0
   23.6555  114.5007   51.3878 H   0  0  0  0  0  0
   18.9645  112.9480   51.9422 H   0  0  0  0  0  0
   17.5967  117.8782   50.9377 H   0  0  0  0  0  0
   18.4907  120.1506   51.4165 H   0  0  0  0  0  0
   22.4997  118.6658   50.8825 H   0  0  0  0  0  0
   26.6710  117.8060   46.2414 H   0  0  0  0  0  0
   26.4014  119.4908   45.8757 H   0  0  0  0  0  0
   24.5733  118.9271   44.3155 H   0  0  0  0  0  0
   26.0031  118.0308   43.8747 H   0  0  0  0  0  0
   25.3468  118.8322   48.0232 H   0  0  0  0  0  0
   24.1591  119.4289   46.8939 H   0  0  0  0  0  0
   23.9909  116.5761   43.8586 H   0  0  0  0  0  0
   25.1742  115.9982   45.0111 H   0  0  0  0  0  0
   24.7573  116.4967   47.5133 H   0  0  0  0  0  0
   23.1729  114.8063   46.2821 H   0  0  0  0  0  0
   22.2430  115.4315   44.9201 H   0  0  0  0  0  0
   21.7303  115.7953   46.5460 H   0  0  0  0  0  0
   20.0774  123.2778   51.9529 H   0  0  0  0  0  0
   19.3112  121.9713   52.8614 H   0  0  0  0  0  0
   19.0030  122.1459   51.1232 H   0  0  0  0  0  0
   23.0181  118.3419   48.7779 H   0  0  0  0  0  0
   21.9725  117.2898   47.8541 H   0  0  0  0  0  0
   23.1972  115.3119   48.9885 H   0  0  0  0  0  0
   23.8614  116.4813   50.1162 H   0  0  0  0  0  0
   22.8431  117.6507   45.6334 H   0  0  0  0  0  0
  1  2  2  0  0  0
  1  3  1  0  0  0
  1 26  1  0  0  0
  2  4  1  0  0  0
  2 27  1  0  0  0
  3  8  2  0  0  0
  3 28  1  0  0  0
  4 10  2  0  0  0
  4 29  1  0  0  0
  5  6  2  0  0  0
  5 11  1  0  0  0
  5 30  1  0  0  0
  6 12  1  0  0  0
  6 31  1  0  0  0
  7  9  1  0  0  0
  7 12  2  0  0  0
  7 32  1  0  0  0
  8 10  1  0  0  0
  8 22  1  0  0  0
  9 11  2  0  0  0
  9 22  1  0  0  0
 10 24  1  0  0  0
 11 24  1  0  0  0
 12 25  1  0  0  0
 13 14  1  0  0  0
 13 15  1  0  0  0
 13 33  1  0  0  0
 13 34  1  0  0  0
 14 16  1  0  0  0
 14 35  1  0  0  0
 14 36  1  0  0  0
 15 17  1  0  0  0
 15 37  1  0  0  0
 15 38  1  0  0  0
 16 23  1  0  0  0
 16 39  1  0  0  0
 16 40  1  0  0  0
 17 20  1  0  0  0
 17 23  1  0  0  0
 17 41  1  0  0  0
 18 23  1  0  0  0
 18 42  1  0  0  0
 18 43  1  0  0  0
 18 44  1  0  0  0
 19 25  1  0  0  0
 19 45  1  0  0  0
 19 46  1  0  0  0
 19 47  1  0  0  0
 20 21  1  0  0  0
 20 48  1  0  0  0
 20 49  1  0  0  0
 21 22  1  0  0  0
 21 50  1  0  0  0
 21 51  1  0  0  0
 23 52  1  0  0  0
M  CHG  1  23   1
M  END
> <i_m_stars>
0

> <s_m_entry_id>
646

> <s_m_Source_Path>
/home/emilio/Dropbox/SAMPL9-eglab/mCD/ligsdfs

> <s_m_Source_File>
TDZNR1appR.sdf

> <i_m_Source_File_Index>
1

> <r_epik_Ionization_Penalty>
  0.0017

> <r_epik_State_Penalty>
  0.0011

> <i_epik_Tot_Q>
1

> <s_m_job_name>
ligprep_4

> <i_f3d_flags>
0

$$$$
