TFP1bppR
                    3D
 Schrodinger Suite 2019-4.
 50 53  0  0  1  0            999 V2000
   22.3371  113.0039   52.2062 C   0  0  0  0  0  0
   21.0235  112.6138   52.4348 C   0  0  0  0  0  0
   22.6041  114.1523   51.4631 C   0  0  0  0  0  0
   19.9810  113.3634   51.9016 C   0  0  0  0  0  0
   18.6190  118.0063   50.8022 C   0  0  0  0  0  0
   19.0508  119.3267   50.8406 C   0  0  0  0  0  0
   21.2993  118.5834   50.4034 C   0  0  0  0  0  0
   21.5699  114.9486   50.9258 C   0  0  0  0  0  0
   20.8998  117.2313   50.3833 C   0  0  0  0  0  0
   20.2455  114.5088   51.1466 C   0  0  0  0  0  0
   19.5238  116.9709   50.5639 C   0  0  0  0  0  0
   20.3970  119.6281   50.6302 C   0  0  0  0  0  0
   24.0620  118.2099   44.9052 C   0  0  0  0  0  0
   25.8773  117.8810   46.5031 C   0  0  0  0  0  0
   24.8784  119.3054   44.2183 C   0  0  0  0  0  0
   26.6761  118.9748   45.7883 C   0  0  0  0  0  0
   23.4958  117.1837   48.5249 C   0  0  0  0  0  0
   22.5367  116.0349   48.9936 C   0  0  0  0  0  0
   23.5753  117.1037   47.0041 C   0  0  0  0  0  0
   21.8038  116.1619   50.2493 N   0  0  0  0  0  0
   24.4225  118.1128   46.3403 N   0  3  0  0  0  0
   26.3066  119.0600   44.3784 N   0  0  0  0  0  0
   21.4722  121.3586   49.4768 F   0  0  0  0  0  0
   21.8094  121.2141   51.6117 F   0  0  0  0  0  0
   19.9222  121.9533   50.8606 F   0  0  0  0  0  0
   18.8897  115.3429   50.4126 S   0  0  0  0  0  0
   20.9002  121.0707   50.6466 C   0  0  0  0  0  0
   23.1512  112.4200   52.6097 H   0  0  0  0  0  0
   20.8131  111.7256   53.0124 H   0  0  0  0  0  0
   23.6433  114.4059   51.3304 H   0  0  0  0  0  0
   18.9626  113.0395   52.0606 H   0  0  0  0  0  0
   17.5691  117.7902   50.9385 H   0  0  0  0  0  0
   18.3283  120.1094   51.0199 H   0  0  0  0  0  0
   22.3264  118.8637   50.2445 H   0  0  0  0  0  0
   23.0083  118.4385   44.8031 H   0  0  0  0  0  0
   24.2063  117.2549   44.4119 H   0  0  0  0  0  0
   26.1541  116.9014   46.1313 H   0  0  0  0  0  0
   26.1366  117.8920   47.5516 H   0  0  0  0  0  0
   24.6381  119.3507   43.1543 H   0  0  0  0  0  0
   24.6235  120.2868   44.6229 H   0  0  0  0  0  0
   26.5181  119.9430   46.2662 H   0  0  0  0  0  0
   27.7458  118.7793   45.8644 H   0  0  0  0  0  0
   23.0984  118.1515   48.8361 H   0  0  0  0  0  0
   24.4648  117.2200   48.9956 H   0  0  0  0  0  0
   21.8835  115.7307   48.1660 H   0  0  0  0  0  0
   23.1674  115.1586   49.1840 H   0  0  0  0  0  0
   23.9047  116.1084   46.7232 H   0  0  0  0  0  0
   22.5565  117.2073   46.6543 H   0  0  0  0  0  0
   26.6682  118.2947   43.8064 H   0  0  0  0  0  0
   24.2211  119.0135   46.7396 H   0  0  0  0  0  0
  1  2  2  0  0  0
  1  3  1  0  0  0
  1 28  1  0  0  0
  2  4  1  0  0  0
  2 29  1  0  0  0
  3  8  2  0  0  0
  3 30  1  0  0  0
  4 10  2  0  0  0
  4 31  1  0  0  0
  5  6  2  0  0  0
  5 11  1  0  0  0
  5 32  1  0  0  0
  6 12  1  0  0  0
  6 33  1  0  0  0
  7  9  1  0  0  0
  7 12  2  0  0  0
  7 34  1  0  0  0
  8 10  1  0  0  0
  8 20  1  0  0  0
  9 11  2  0  0  0
  9 20  1  0  0  0
 10 26  1  0  0  0
 11 26  1  0  0  0
 12 27  1  0  0  0
 13 15  1  0  0  0
 13 21  1  0  0  0
 13 35  1  0  0  0
 13 36  1  0  0  0
 14 16  1  0  0  0
 14 21  1  0  0  0
 14 37  1  0  0  0
 14 38  1  0  0  0
 15 22  1  0  0  0
 15 39  1  0  0  0
 15 40  1  0  0  0
 16 22  1  0  0  0
 16 41  1  0  0  0
 16 42  1  0  0  0
 17 18  1  0  0  0
 17 19  1  0  0  0
 17 43  1  0  0  0
 17 44  1  0  0  0
 18 20  1  0  0  0
 18 45  1  0  0  0
 18 46  1  0  0  0
 19 21  1  0  0  0
 19 47  1  0  0  0
 19 48  1  0  0  0
 21 50  1  0  0  0
 22 49  1  0  0  0
 23 27  1  0  0  0
 24 27  1  0  0  0
 25 27  1  0  0  0
M  CHG  1  21   1
M  END
> <i_m_stars>
0

> <s_m_entry_id>
651

> <s_m_Source_Path>
/home/emilio/Dropbox/SAMPL9-eglab/mCD/ligsdfs

> <s_m_Source_File>
TFP1bppR.sdf

> <i_m_Source_File_Index>
1

> <r_epik_Ionization_Penalty>
  0.1004

> <r_epik_State_Penalty>
  1.6660

> <i_epik_Tot_Q>
1

> <s_m_job_name>
ligprep_4

> <i_f3d_flags>
0

$$$$
