TFP1appR
                    3D
 Schrodinger Suite 2019-4.
 50 53  0  0  1  0            999 V2000
   22.3438  112.9715   52.1502 C   0  0  0  0  0  0
   21.0307  112.5789   52.3793 C   0  0  0  0  0  0
   22.6086  114.1324   51.4256 C   0  0  0  0  0  0
   19.9864  113.3384   51.8645 C   0  0  0  0  0  0
   18.5928  118.0343   50.4519 C   0  0  0  0  0  0
   19.0195  119.3532   50.3472 C   0  0  0  0  0  0
   21.2848  118.5798   50.0922 C   0  0  0  0  0  0
   21.5732  114.9371   50.9074 C   0  0  0  0  0  0
   20.8892  117.2309   50.2166 C   0  0  0  0  0  0
   20.2488  114.4955   51.1266 C   0  0  0  0  0  0
   19.5089  116.9838   50.3769 C   0  0  0  0  0  0
   20.3722  119.6373   50.1559 C   0  0  0  0  0  0
   24.5271  118.6819   45.1597 C   0  0  0  0  0  0
   25.8817  118.6146   47.1154 C   0  0  0  0  0  0
   25.1555  120.0155   44.7590 C   0  0  0  0  0  0
   26.5929  119.9248   46.7313 C   0  0  0  0  0  0
   23.3663  117.3971   48.4304 C   0  0  0  0  0  0
   22.6038  116.1696   49.0551 C   0  0  0  0  0  0
   23.6734  117.4396   46.9403 C   0  0  0  0  0  0
   21.8228  116.1649   50.2461 N   0  0  0  0  0  0
   24.4868  118.6229   46.6108 N   0  0  0  0  0  0
   26.5444  120.0994   45.2671 N   0  3  0  0  0  0
   21.8469  121.2932   50.9194 F   0  0  0  0  0  0
   19.9107  121.9735   50.2455 F   0  0  0  0  0  0
   21.3644  121.2690   48.8081 F   0  0  0  0  0  0
   18.8900  115.3437   50.4122 S   0  0  0  0  0  0
   20.8744  121.0752   50.0328 C   0  0  0  0  0  0
   23.1593  112.3795   52.5383 H   0  0  0  0  0  0
   20.8229  111.6811   52.9425 H   0  0  0  0  0  0
   23.6464  114.3819   51.2873 H   0  0  0  0  0  0
   18.9682  113.0135   52.0240 H   0  0  0  0  0  0
   17.5393  117.8291   50.5750 H   0  0  0  0  0  0
   18.2888  120.1464   50.4042 H   0  0  0  0  0  0
   22.3204  118.8456   49.9544 H   0  0  0  0  0  0
   23.5011  118.6371   44.7902 H   0  0  0  0  0  0
   25.0514  117.8129   44.7492 H   0  0  0  0  0  0
   26.4498  117.7446   46.7858 H   0  0  0  0  0  0
   25.8970  118.5581   48.1931 H   0  0  0  0  0  0
   25.1415  120.0987   43.6781 H   0  0  0  0  0  0
   24.5525  120.8333   45.1605 H   0  0  0  0  0  0
   26.1237  120.7742   47.2439 H   0  0  0  0  0  0
   27.6358  119.9113   47.0645 H   0  0  0  0  0  0
   23.1262  118.3529   48.8885 H   0  0  0  0  0  0
   24.3902  117.2747   48.5698 H   0  0  0  0  0  0
   22.0947  115.6317   48.2524 H   0  0  0  0  0  0
   23.4266  115.5200   49.3661 H   0  0  0  0  0  0
   24.2143  116.5259   46.6708 H   0  0  0  0  0  0
   22.7318  117.4083   46.4030 H   0  0  0  0  0  0
   27.0885  119.3558   44.8435 H   0  0  0  0  0  0
   26.9283  121.0018   45.0258 H   0  0  0  0  0  0
  1  2  2  0  0  0
  1  3  1  0  0  0
  1 28  1  0  0  0
  2  4  1  0  0  0
  2 29  1  0  0  0
  3  8  2  0  0  0
  3 30  1  0  0  0
  4 10  2  0  0  0
  4 31  1  0  0  0
  5  6  2  0  0  0
  5 11  1  0  0  0
  5 32  1  0  0  0
  6 12  1  0  0  0
  6 33  1  0  0  0
  7  9  1  0  0  0
  7 12  2  0  0  0
  7 34  1  0  0  0
  8 10  1  0  0  0
  8 20  1  0  0  0
  9 11  2  0  0  0
  9 20  1  0  0  0
 10 26  1  0  0  0
 11 26  1  0  0  0
 12 27  1  0  0  0
 13 15  1  0  0  0
 13 21  1  0  0  0
 13 35  1  0  0  0
 13 36  1  0  0  0
 14 16  1  0  0  0
 14 21  1  0  0  0
 14 37  1  0  0  0
 14 38  1  0  0  0
 15 22  1  0  0  0
 15 39  1  0  0  0
 15 40  1  0  0  0
 16 22  1  0  0  0
 16 41  1  0  0  0
 16 42  1  0  0  0
 17 18  1  0  0  0
 17 19  1  0  0  0
 17 43  1  0  0  0
 17 44  1  0  0  0
 18 20  1  0  0  0
 18 45  1  0  0  0
 18 46  1  0  0  0
 19 21  1  0  0  0
 19 47  1  0  0  0
 19 48  1  0  0  0
 22 49  1  0  0  0
 22 50  1  0  0  0
 23 27  1  0  0  0
 24 27  1  0  0  0
 25 27  1  0  0  0
M  CHG  1  22   1
M  END
> <i_m_stars>
0

> <s_m_entry_id>
650

> <s_m_Source_Path>
/home/emilio/Dropbox/SAMPL9-eglab/mCD/ligsdfs

> <s_m_Source_File>
TFP1appR.sdf

> <i_m_Source_File_Index>
1

> <r_epik_Ionization_Penalty>
  0.0078

> <r_epik_State_Penalty>
  0.0420

> <i_epik_Tot_Q>
1

> <s_m_job_name>
ligprep_4

> <i_f3d_flags>
0

$$$$
