bCDH26DM
                    3D

189196  0  0  1  0            999 V2000
   21.5079  111.0643   43.2123  C    0  0  2  0  0  0
   20.7376  110.1789   42.1511  C    0  0  1  0  0  0
   21.4834  108.7902   42.0460  C    0  0  2  0  0  0
   23.0077  108.8900   41.8674  C    0  0  1  0  0  0
   23.6331  109.8026   42.9340  C    0  0  1  0  0  0
   25.1369  110.0570   42.7215  C    0  0  0  0  0  0
   19.8950  111.4772   48.3664  C    0  0  2  0  0  0
   18.9443  110.8407   47.3539  C    0  0  1  0  0  0
   19.7293  110.0942   46.1956  C    0  0  2  0  0  0
   20.5528  111.2203   45.5166  C    0  0  1  0  0  0
   21.5651  111.8623   46.5161  C    0  0  1  0  0  0
   22.3180  113.0655   45.9608  C    0  0  0  0  0  0
   22.6911  109.3754   52.3580  C    0  0  2  0  0  0
   21.1473  108.9780   52.2772  C    0  0  1  0  0  0
   20.7134  108.9960   50.7977  C    0  0  2  0  0  0
   21.0172  110.4719   50.3812  C    0  0  1  0  0  0
   22.4772  110.9466   50.4873  C    0  0  1  0  0  0
   22.7930  112.3379   49.9218  C    0  0  0  0  0  0
   27.1205  106.2287   52.1378  C    0  0  2  0  0  0
   26.1816  106.2444   53.3747  C    0  0  1  0  0  0
   24.8022  106.8343   53.1124  C    0  0  2  0  0  0
   24.8545  108.1411   52.1892  C    0  0  1  0  0  0
   25.8036  107.8142   50.9187  C    0  0  1  0  0  0
   25.8789  109.0045   49.9422  C    0  0  0  0  0  0
   28.8208  102.6273   48.5498  C    0  0  2  0  0  0
   28.0534  101.8904   49.6861  C    0  0  1  0  0  0
   27.0865  102.8772   50.4352  C    0  0  2  0  0  0
   27.7692  104.2050   50.8546  C    0  0  1  0  0  0
   28.6060  104.8030   49.6782  C    0  0  1  0  0  0
   29.5660  105.9514   50.1499  C    0  0  0  0  0  0
   27.4384  103.1617   43.4248  C    0  0  2  0  0  0
   27.0774  101.8385   44.1246  C    0  0  1  0  0  0
   26.9711  102.1233   45.6881  C    0  0  2  0  0  0
   28.1812  102.7620   46.2132  C    0  0  1  0  0  0
   28.6388  103.9820   45.4214  C    0  0  1  0  0  0
   30.0528  104.4176   45.8657  C    0  0  0  0  0  0
   24.0746  106.7796   41.0870  C    0  0  1  0  0  0
   23.6725  105.3144   41.2214  C    0  0  1  0  0  0
   24.3415  104.5834   42.3983  C    0  0  2  0  0  0
   25.8413  104.7155   42.3676  C    0  0  1  0  0  0
   26.1803  106.2281   42.2532  C    0  0  1  0  0  0
   27.7420  106.3681   42.1158  C    0  0  0  0  0  0
   19.2591  109.9684   42.5164  O    0  0  0  0  0  0
   20.9120  107.9520   41.0434  O    0  0  0  0  0  0
   21.1018  108.3223   39.6137  C    0  0  0  0  0  0
   23.5888  107.5502   42.1823  O    0  0  0  0  0  0
   22.9415  111.0933   42.9283  O    0  0  0  0  0  0
   25.4453  110.2173   41.3226  O    0  0  0  0  0  0
   26.8520  110.0071   40.9997  C    0  0  0  0  0  0
   17.9666  109.9760   48.0813  O    0  0  0  0  0  0
   18.7637  109.6940   45.1922  O    0  0  0  0  0  0
   18.3237  108.3090   45.2687  C    0  0  0  0  0  0
   21.4277  110.5543   44.5249  O    0  0  0  0  0  0
   20.8014  112.3444   47.6701  O    0  0  0  0  0  0
   22.7327  113.8624   46.9866  O    0  0  0  0  0  0
   22.9684  115.2589   46.5877  C    0  0  0  0  0  0
   20.9761  107.5726   52.7937  O    0  0  0  0  0  0
   19.2921  108.7241   50.7057  O    0  0  0  0  0  0
   18.9849  107.2934   50.3041  C    0  0  0  0  0  0
   20.6615  110.4418   48.9364  O    0  0  0  0  0  0
   22.9217  110.6988   51.8391  O    0  0  0  0  0  0
   23.8763  112.9414   50.6914  O    0  0  0  0  0  0
   24.3083  114.2598   50.0999  C    0  0  0  0  0  0
   26.1411  104.9053   53.9903  O    0  0  0  0  0  0
   24.0294  107.2346   54.3537  O    0  0  0  0  0  0
   23.5700  106.2485   55.3341  C    0  0  0  0  0  0
   23.4820  108.4054   51.5600  O    0  0  0  0  0  0
   27.0983  107.4794   51.4155  O    0  0  0  0  0  0
   26.1417  110.2891   50.6384  O    0  0  0  0  0  0
   26.5438  111.4584   49.7439  C    0  0  0  0  0  0
   27.3093  100.8141   49.0829  O    0  0  0  0  0  0
   26.5310  102.1844   51.5363  O    0  0  0  0  0  0
   27.3391  101.6863   52.6455  C    0  0  0  0  0  0
   26.7369  105.1204   51.2231  O    0  0  0  0  0  0
   29.4680  103.7906   49.1223  O    0  0  0  0  0  0
   30.3063  105.4222   51.2998  O    0  0  0  0  0  0
   31.3305  106.1786   51.9637  C    0  0  0  0  0  0
   25.7869  101.3264   43.5896  O    0  0  0  0  0  0
   26.6590  100.8783   46.4191  O    0  0  0  0  0  0
   25.2489  100.6088   46.7154  C    0  0  0  0  0  0
   27.8437  103.0332   47.5677  O    0  0  0  0  0  0
   28.6323  103.7422   44.0036  O    0  0  0  0  0  0
   30.9718  103.4185   45.4260  O    0  0  0  0  0  0
   32.2870  103.5387   46.0342  C    0  0  0  0  0  0
   22.2727  105.2270   41.2709  O    0  0  0  0  0  0
   24.0949  103.1504   42.4307  O    0  0  0  0  0  0
   23.0506  102.6563   43.2486  C    0  0  0  0  0  0
   26.4045  104.1325   43.5817  O    0  0  0  0  0  0
   25.5209  106.8379   41.0702  O    0  0  0  0  0  0
   28.2663  105.8379   40.8282  O    0  0  0  0  0  0
   29.5927  105.2778   40.8300  C    0  0  0  0  0  0
   21.4563  113.5444   45.3858  H    0  0  0  0  0  0
   23.1018  112.8948   45.2888  H    0  0  0  0  0  0
   19.3003  109.9476   43.5499  H    0  0  0  0  0  0
   20.6020  109.2020   39.3130  H    0  0  0  0  0  0
   20.8544  107.5477   38.8310  H    0  0  0  0  0  0
   22.1262  108.5585   39.4411  H    0  0  0  0  0  0
   27.4786  110.7511   41.4635  H    0  0  0  0  0  0
   26.9118  110.0356   39.9175  H    0  0  0  0  0  0
   27.1646  109.0700   41.3975  H    0  0  0  0  0  0
   18.4890  109.5901   48.8037  H    0  0  0  0  0  0
   17.5277  108.0471   44.5152  H    0  0  0  0  0  0
   17.9352  108.1314   46.2561  H    0  0  0  0  0  0
   19.1278  107.5937   44.9251  H    0  0  0  0  0  0
   22.4467  115.9665   47.2614  H    0  0  0  0  0  0
   22.6203  115.3960   45.6027  H    0  0  0  0  0  0
   24.0284  115.4474   46.5697  H    0  0  0  0  0  0
   21.5570  107.0632   52.1893  H    0  0  0  0  0  0
   19.3304  107.1500   49.2689  H    0  0  0  0  0  0
   17.8987  107.0979   50.3030  H    0  0  0  0  0  0
   19.5128  106.5364   50.9018  H    0  0  0  0  0  0
   25.2522  114.5721   50.5843  H    0  0  0  0  0  0
   23.5104  115.0135   50.1077  H    0  0  0  0  0  0
   24.5622  114.1373   49.0664  H    0  0  0  0  0  0
   27.1130  104.6827   54.1857  H    0  0  0  0  0  0
   24.4070  106.0389   55.9880  H    0  0  0  0  0  0
   23.0740  105.4115   54.9050  H    0  0  0  0  0  0
   22.7838  106.7335   55.9971  H    0  0  0  0  0  0
   27.5907  111.3786   49.5165  H    0  0  0  0  0  0
   26.4718  112.3785   50.2586  H    0  0  0  0  0  0
   25.9058  111.3493   48.8117  H    0  0  0  0  0  0
   27.1088  101.2702   48.2112  H    0  0  0  0  0  0
   28.1690  100.9589   52.4026  H    0  0  0  0  0  0
   26.7181  101.2012   53.3931  H    0  0  0  0  0  0
   27.7948  102.5049   53.2320  H    0  0  0  0  0  0
   32.0675  106.6211   51.2762  H    0  0  0  0  0  0
   31.8465  105.4650   52.6726  H    0  0  0  0  0  0
   30.8221  106.9917   52.4307  H    0  0  0  0  0  0
   25.1311  102.0249   43.1997  H    0  0  0  0  0  0
   25.0972   99.7088   47.2173  H    0  0  0  0  0  0
   24.4943  100.5748   45.8671  H    0  0  0  0  0  0
   24.8030  101.4442   47.2582  H    0  0  0  0  0  0
   32.9260  102.7640   45.6423  H    0  0  0  0  0  0
   32.2190  103.3006   47.1001  H    0  0  0  0  0  0
   32.7517  104.5579   46.0144  H    0  0  0  0  0  0
   21.9059  105.5134   42.1441  H    0  0  0  0  0  0
   23.0416  101.5925   43.0927  H    0  0  0  0  0  0
   22.0130  103.0696   43.0244  H    0  0  0  0  0  0
   23.3169  102.8187   44.3462  H    0  0  0  0  0  0
   29.6406  104.5892   41.6683  H    0  0  0  0  0  0
   30.2812  106.0845   41.0376  H    0  0  0  0  0  0
   29.7722  104.8125   39.8495  H    0  0  0  0  0  0
   21.1949  112.1119   43.1361  H    0  0  0  0  0  0
   20.6763  110.7896   41.2418  H    0  0  0  0  0  0
   21.4663  108.2337   42.9912  H    0  0  0  0  0  0
   23.3238  109.2369   40.8759  H    0  0  0  0  0  0
   23.5377  109.3485   43.9281  H    0  0  0  0  0  0
   25.4015  110.8958   43.3770  H    0  0  0  0  0  0
   25.6424  109.1711   43.1254  H    0  0  0  0  0  0
   19.3640  112.0028   49.1684  H    0  0  0  0  0  0
   18.3987  111.6401   46.8375  H    0  0  0  0  0  0
   20.3337  109.2275   46.4905  H    0  0  0  0  0  0
   19.9587  112.0321   45.0789  H    0  0  0  0  0  0
   22.1857  111.0496   46.9131  H    0  0  0  0  0  0
   22.9149  109.3524   53.4307  H    0  0  0  0  0  0
   20.6201  109.6418   52.9736  H    0  0  0  0  0  0
   21.2287  108.1511   50.3244  H    0  0  0  0  0  0
   20.3363  111.1670   50.9352  H    0  0  0  0  0  0
   22.9728  110.1571   49.8471  H    0  0  0  0  0  0
   21.9054  112.9759   49.7956  H    0  0  0  0  0  0
   23.0907  112.0636   48.8659  H    0  0  0  0  0  0
   28.1361  106.0151   52.4403  H    0  0  0  0  0  0
   26.6990  106.9402   54.1129  H    0  0  0  0  0  0
   24.2864  105.9997   52.6162  H    0  0  0  0  0  0
   25.1757  108.9626   52.8251  H    0  0  0  0  0  0
   25.3395  106.8914   50.4367  H    0  0  0  0  0  0
   26.6840  108.7808   49.2125  H    0  0  0  0  0  0
   24.8897  109.0609   49.5514  H    0  0  0  0  0  0
   29.5786  101.9777   48.1315  H    0  0  0  0  0  0
   28.7704  101.5241   50.4558  H    0  0  0  0  0  0
   26.2384  103.1028   49.7429  H    0  0  0  0  0  0
   28.3891  104.0463   51.7416  H    0  0  0  0  0  0
   27.8887  105.1277   48.8946  H    0  0  0  0  0  0
   30.2321  106.1225   49.3142  H    0  0  0  0  0  0
   29.0891  106.8467   50.3328  H    0  0  0  0  0  0
   27.6396  102.9872   42.3977  H    0  0  0  0  0  0
   27.9333  101.1642   43.7983  H    0  0  0  0  0  0
   26.1740  102.8961   45.8424  H    0  0  0  0  0  0
   28.9489  102.0135   46.1453  H    0  0  0  0  0  0
   27.9396  104.7708   45.5092  H    0  0  0  0  0  0
   30.3393  105.3400   45.3003  H    0  0  0  0  0  0
   30.1288  104.6616   46.9623  H    0  0  0  0  0  0
   23.6395  107.2487   40.2595  H    0  0  0  0  0  0
   23.9255  104.8048   40.3636  H    0  0  0  0  0  0
   23.9657  105.1173   43.2509  H    0  0  0  0  0  0
   26.1884  104.2157   41.4957  H    0  0  0  0  0  0
   25.7628  106.6782   43.1198  H    0  0  0  0  0  0
   28.3089  105.8576   42.9464  H    0  0  0  0  0  0
   27.9506  107.4211   42.2003  H    0  0  0  0  0  0
  1  2  1  0  0  0
  1 47  1  0  0  0
  1 53  1  0  0  0
  1143  1  0  0  0
  2  3  1  0  0  0
  2 43  1  0  0  0
  2144  1  0  0  0
  3  4  1  0  0  0
  3 44  1  0  0  0
  3145  1  0  0  0
  4  5  1  0  0  0
  4 46  1  0  0  0
  4146  1  0  0  0
  5  6  1  0  0  0
  5 47  1  0  0  0
  5147  1  0  0  0
  6 48  1  0  0  0
  6148  1  0  0  0
  6149  1  0  0  0
  7  8  1  0  0  0
  7 54  1  0  0  0
  7 60  1  0  0  0
  7150  1  0  0  0
  8  9  1  0  0  0
  8 50  1  0  0  0
  8151  1  0  0  0
  9 10  1  0  0  0
  9 51  1  0  0  0
  9152  1  0  0  0
 10 11  1  0  0  0
 10 53  1  0  0  0
 10153  1  0  0  0
 11 12  1  0  0  0
 11 54  1  0  0  0
 11154  1  0  0  0
 12 55  1  0  0  0
 12 92  1  0  0  0
 12 93  1  0  0  0
 13 14  1  0  0  0
 13 61  1  0  0  0
 13 67  1  0  0  0
 13155  1  0  0  0
 14 15  1  0  0  0
 14 57  1  0  0  0
 14156  1  0  0  0
 15 16  1  0  0  0
 15 58  1  0  0  0
 15157  1  0  0  0
 16 17  1  0  0  0
 16 60  1  0  0  0
 16158  1  0  0  0
 17 18  1  0  0  0
 17 61  1  0  0  0
 17159  1  0  0  0
 18 62  1  0  0  0
 18160  1  0  0  0
 18161  1  0  0  0
 19 20  1  0  0  0
 19 68  1  0  0  0
 19 74  1  0  0  0
 19162  1  0  0  0
 20 21  1  0  0  0
 20 64  1  0  0  0
 20163  1  0  0  0
 21 22  1  0  0  0
 21 65  1  0  0  0
 21164  1  0  0  0
 22 23  1  0  0  0
 22 67  1  0  0  0
 22165  1  0  0  0
 23 24  1  0  0  0
 23 68  1  0  0  0
 23166  1  0  0  0
 24 69  1  0  0  0
 24167  1  0  0  0
 24168  1  0  0  0
 25 26  1  0  0  0
 25 75  1  0  0  0
 25 81  1  0  0  0
 25169  1  0  0  0
 26 27  1  0  0  0
 26 71  1  0  0  0
 26170  1  0  0  0
 27 28  1  0  0  0
 27 72  1  0  0  0
 27171  1  0  0  0
 28 29  1  0  0  0
 28 74  1  0  0  0
 28172  1  0  0  0
 29 30  1  0  0  0
 29 75  1  0  0  0
 29173  1  0  0  0
 30 76  1  0  0  0
 30174  1  0  0  0
 30175  1  0  0  0
 31 32  1  0  0  0
 31 82  1  0  0  0
 31 88  1  0  0  0
 31176  1  0  0  0
 32 33  1  0  0  0
 32 78  1  0  0  0
 32177  1  0  0  0
 33 34  1  0  0  0
 33 79  1  0  0  0
 33178  1  0  0  0
 34 35  1  0  0  0
 34 81  1  0  0  0
 34179  1  0  0  0
 35 36  1  0  0  0
 35 82  1  0  0  0
 35180  1  0  0  0
 36 83  1  0  0  0
 36181  1  0  0  0
 36182  1  0  0  0
 37 38  1  0  0  0
 37 46  1  0  0  0
 37 89  1  0  0  0
 37183  1  0  0  0
 38 39  1  0  0  0
 38 85  1  0  0  0
 38184  1  0  0  0
 39 40  1  0  0  0
 39 86  1  0  0  0
 39185  1  0  0  0
 40 41  1  0  0  0
 40 88  1  0  0  0
 40186  1  0  0  0
 41 42  1  0  0  0
 41 89  1  0  0  0
 41187  1  0  0  0
 42 90  1  0  0  0
 42188  1  0  0  0
 42189  1  0  0  0
 43 94  1  0  0  0
 44 45  1  0  0  0
 45 95  1  0  0  0
 45 96  1  0  0  0
 45 97  1  0  0  0
 48 49  1  0  0  0
 49 98  1  0  0  0
 49 99  1  0  0  0
 49100  1  0  0  0
 50101  1  0  0  0
 51 52  1  0  0  0
 52102  1  0  0  0
 52103  1  0  0  0
 52104  1  0  0  0
 55 56  1  0  0  0
 56105  1  0  0  0
 56106  1  0  0  0
 56107  1  0  0  0
 57108  1  0  0  0
 58 59  1  0  0  0
 59109  1  0  0  0
 59110  1  0  0  0
 59111  1  0  0  0
 62 63  1  0  0  0
 63112  1  0  0  0
 63113  1  0  0  0
 63114  1  0  0  0
 64115  1  0  0  0
 65 66  1  0  0  0
 66116  1  0  0  0
 66117  1  0  0  0
 66118  1  0  0  0
 69 70  1  0  0  0
 70119  1  0  0  0
 70120  1  0  0  0
 70121  1  0  0  0
 71122  1  0  0  0
 72 73  1  0  0  0
 73123  1  0  0  0
 73124  1  0  0  0
 73125  1  0  0  0
 76 77  1  0  0  0
 77126  1  0  0  0
 77127  1  0  0  0
 77128  1  0  0  0
 78129  1  0  0  0
 79 80  1  0  0  0
 80130  1  0  0  0
 80131  1  0  0  0
 80132  1  0  0  0
 83 84  1  0  0  0
 84133  1  0  0  0
 84134  1  0  0  0
 84135  1  0  0  0
 85136  1  0  0  0
 86 87  1  0  0  0
 87137  1  0  0  0
 87138  1  0  0  0
 87139  1  0  0  0
 90 91  1  0  0  0
 91140  1  0  0  0
 91141  1  0  0  0
 91142  1  0  0  0
M  END
> <s_m_entry_id>
14

> <s_m_Source_Path>
/home/emilio/Dropbox/sims/SAMPL9/work/receptor

> <s_m_Source_File>
bCDH26DM.mol2

> <i_m_Source_File_Index>
1

$$$$

