CPZ1appS
                    3D
 Structure written by MMmdl.
 41 43  0  0  1  0            999 V2000
   23.1656  110.2214   45.4339 C   0  0  0  0  0  0
   22.0980  111.1347   45.5309 C   0  0  0  0  0  0
   24.3434  110.5757   44.7429 C   0  0  0  0  0  0
   22.2026  112.4038   44.9360 C   0  0  0  0  0  0
   24.3448  114.7049   40.7680 C   0  0  0  0  0  0
   25.1141  114.3755   39.6404 C   0  0  0  0  0  0
   26.2574  112.6364   40.9187 C   0  0  0  0  0  0
   24.4441  111.8382   44.1070 C   0  0  0  0  0  0
   25.4739  112.9444   42.0523 C   0  0  0  0  0  0
   23.3625  112.7507   44.2199 C   0  0  0  0  0  0
   24.5118  113.9829   41.9656 C   0  0  0  0  0  0
   26.0658  113.3433   39.7138 C   0  0  0  0  0  0
   29.1379  114.9822   45.8348 C   0  0  0  0  0  0
   27.1993  116.4811   45.8637 C   0  0  0  0  0  0
   27.1848  112.6873   45.1206 C   0  0  0  0  0  0
   26.8114  111.9271   43.8039 C   0  0  0  0  0  0
   26.9530  114.2107   44.9204 C   0  0  0  0  0  0
   25.4947  112.1532   43.2227 N   0  0  0  0  0  0
   27.6564  115.0697   45.9115 N   0  3  0  0  0  0
   23.4100  114.2702   43.3152 S   0  0  0  0  0  0
   26.9490  112.8812   38.3059 Cl  0  0  0  0  0  0
   23.0510  109.2242   45.8358 H   0  0  0  0  0  0
   21.1735  110.8364   46.0034 H   0  0  0  0  0  0
   25.1176  109.8304   44.6261 H   0  0  0  0  0  0
   21.3669  113.0824   44.9604 H   0  0  0  0  0  0
   23.5742  115.4572   40.7043 H   0  0  0  0  0  0
   24.9223  114.8658   38.6959 H   0  0  0  0  0  0
   26.9392  111.7985   40.9290 H   0  0  0  0  0  0
   29.5024  115.2820   44.8505 H   0  0  0  0  0  0
   29.4915  113.9723   46.0361 H   0  0  0  0  0  0
   29.6057  115.6330   46.5760 H   0  0  0  0  0  0
   27.4452  116.9490   44.9064 H   0  0  0  0  0  0
   27.6666  117.0777   46.6515 H   0  0  0  0  0  0
   26.1187  116.5587   46.0047 H   0  0  0  0  0  0
   26.5601  112.3552   45.9542 H   0  0  0  0  0  0
   28.2239  112.5097   45.4116 H   0  0  0  0  0  0
   27.4408  112.2981   42.9764 H   0  0  0  0  0  0
   27.0048  110.8505   43.9402 H   0  0  0  0  0  0
   27.2369  114.5086   43.9099 H   0  0  0  0  0  0
   25.8824  114.4086   44.9965 H   0  0  0  0  0  0
   27.3941  114.7284   46.8290 H   0  0  0  0  0  0
  1  2  2  0  0  0
  1  3  1  0  0  0
  1 22  1  0  0  0
  2  4  1  0  0  0
  2 23  1  0  0  0
  3  8  2  0  0  0
  3 24  1  0  0  0
  4 10  2  0  0  0
  4 25  1  0  0  0
  5  6  2  0  0  0
  5 11  1  0  0  0
  5 26  1  0  0  0
  6 12  1  0  0  0
  6 27  1  0  0  0
  7  9  1  0  0  0
  7 12  2  0  0  0
  7 28  1  0  0  0
  8 10  1  0  0  0
  8 18  1  0  0  0
  9 11  2  0  0  0
  9 18  1  0  0  0
 10 20  1  0  0  0
 11 20  1  0  0  0
 12 21  1  0  0  0
 13 19  1  0  0  0
 13 29  1  0  0  0
 13 30  1  0  0  0
 13 31  1  0  0  0
 14 19  1  0  0  0
 14 32  1  0  0  0
 14 33  1  0  0  0
 14 34  1  0  0  0
 15 16  1  0  0  0
 15 17  1  0  0  0
 15 35  1  0  0  0
 15 36  1  0  0  0
 16 18  1  0  0  0
 16 37  1  0  0  0
 16 38  1  0  0  0
 17 19  1  0  0  0
 17 39  1  0  0  0
 17 40  1  0  0  0
 19 41  1  0  0  0
M  CHG  1  19   1
M  END
> <s_m_entry_id>
535

> <s_m_entry_name>
CPZ1appS.1

> <s_m_Source_Path>
/home/emilio/Dropbox/SAMPL9-eglab/mCD/ligsdfs

> <s_m_Source_File>
CPZ1appS.sdf

> <i_m_Source_File_Index>
1

> <r_epik_Ionization_Penalty>
  0.0036

> <r_epik_State_Penalty>
  0.0025

> <i_epik_Tot_Q>
1

> <s_m_job_name>
ligprep_4

> <chiral flag>
1

> <version>
0

> <i_f3d_flags>
0

> <s_m_subgroup_title>
bCDq->ppS_copy1

> <s_m_subgroupid>
bCDq_copy1->ppS1_copy1_copy1

> <b_m_subgroup_collapsed>
0

$$$$
