@<TRIPOS>MOLECULE
LIG
41 43
SMALL
USER_CHARGES
@<TRIPOS>ATOM
      1 C1         23.1656  110.2214   45.4339 AA             0 LIG     -0.148984
      2 C2         22.0980  111.1347   45.5309 AB             0 LIG     -0.148984
      3 C3         24.3434  110.5757   44.7429 AD             0 LIG     -0.216162
      4 C4         22.2026  112.4038   44.9360 AE             0 LIG     -0.191448
      5 C5         24.3448  114.7049   40.7680 AF             0 LIG     -0.191448
      6 C6         25.1141  114.3755   39.6404 AH             0 LIG     -0.201273
      7 C7         26.2574  112.6364   40.9187 AI             0 LIG     -0.282378
      8 C8         24.4441  111.8382   44.1070 AJ             0 LIG     0.090825
      9 C9         25.4739  112.9444   42.0523 AK             0 LIG     0.090825
     10 C10        23.3625  112.7507   44.2199 AN             0 LIG     0.113170
     11 C11        24.5118  113.9829   41.9656 AO             0 LIG     0.113170
     12 C12        26.0658  113.3433   39.7138 AP             0 LIG     0.139586
     13 C13        29.1379  114.9822   45.8348 AQ             0 LIG     -0.327670
     14 C14        27.1993  116.4811   45.8637 AV             0 LIG     -0.327670
     15 C15        27.1848  112.6873   45.1206 AW             0 LIG     -0.018552
     16 C16        26.8114  111.9271   43.8039 AX             0 LIG     0.030051
     17 C17        26.9530  114.2107   44.9204 AY             0 LIG     0.155353
     18 N1         25.4947  112.1532   43.2227 AZ             0 LIG     -0.186524
     19 N2         27.6564  115.0697   45.9115 BB             0 LIG     0.134459
     20 S1         23.4100  114.2702   43.3152 BC             0 LIG     -0.184949
     21 CL1        26.9490  112.8812   38.3059 BD             0 LIG     -0.163674
     22 H1         23.0510  109.2242   45.8358 BF             0 LIG     0.167367
     23 H2         21.1735  110.8364   46.0034 BG             0 LIG     0.167367
     24 H3         25.1176  109.8304   44.6261 BH             0 LIG     0.144463
     25 H4         21.3669  113.0824   44.9604 BJ             0 LIG     0.182657
     26 H5         23.5742  115.4572   40.7043 BK             0 LIG     0.182657
     27 H6         24.9223  114.8658   38.6959 BL             0 LIG     0.185066
     28 H7         26.9392  111.7985   40.9290 BM             0 LIG     0.159917
     29 H8         29.5024  115.2820   44.8505 BN             0 LIG     0.163775
     30 H9         29.4915  113.9723   46.0361 BO             0 LIG     0.163775
     31 H10        29.6057  115.6330   46.5760 BP             0 LIG     0.163775
     32 H11        27.4452  116.9490   44.9064 BQ             0 LIG     0.163775
     33 H12        27.6666  117.0777   46.6515 BS             0 LIG     0.163775
     34 H13        26.1187  116.5587   46.0047 BT             0 LIG     0.163775
     35 H14        26.5601  112.3552   45.9542 BU             0 LIG     0.042423
     36 H15        28.2239  112.5097   45.4116 BV             0 LIG     0.042423
     37 H16        27.4408  112.2981   42.9764 BW             0 LIG     0.092460
     38 H17        27.0048  110.8505   43.9402 BX             0 LIG     0.092460
     39 H18        27.2369  114.5086   43.9099 BY             0 LIG     0.021392
     40 H19        25.8824  114.4086   44.9965 BZ             0 LIG     0.021392
     41 H20        27.3941  114.7284   46.8290 CB             0 LIG     0.237587
@<TRIPOS>BOND
        1  1  2  2
        2  1  3  1
        3  1  22  1
        4  2  4  1
        5  2  23  1
        6  3  8  2
        7  3  24  1
        8  4  10  2
        9  4  25  1
        10  5  6  1
        11  5  11  2
        12  5  26  1
        13  6  12  2
        14  6  27  1
        15  7  9  2
        16  7  12  1
        17  7  28  1
        18  8  10  1
        19  8  18  1
        20  9  11  1
        21  9  18  1
        22  10  20  1
        23  11  20  1
        24  12  21  1
        25  13  19  1
        26  13  29  1
        27  13  30  1
        28  13  31  1
        29  14  19  1
        30  14  32  1
        31  14  33  1
        32  14  34  1
        33  15  16  1
        34  15  17  1
        35  15  35  1
        36  15  36  1
        37  16  18  1
        38  16  37  1
        39  16  38  1
        40  17  19  1
        41  17  39  1
        42  17  40  1
        43  19  41  1
@<TRIPOS>SUBSTRUCTURE
       1 LIG             1 RESIDUE    0 **** ROOT      0

