@<TRIPOS>MOLECULE
LIG
41 43
SMALL
USER_CHARGES
@<TRIPOS>ATOM
      1 C1         23.1356  110.2929   45.4631 AA             0 LIG     -0.150100
      2 C2         26.0555  113.3505   39.7212 AB             0 LIG     -0.150100
      3 C3         22.0019  111.1287   45.4009 AD             0 LIG     -0.150100
      4 C4         25.0487  114.3318   39.6305 AE             0 LIG     -0.150100
      5 C5         24.3485  110.6807   44.8593 AF             0 LIG     -0.220762
      6 C6         26.2789  112.6599   40.9397 AH             0 LIG     -0.220762
      7 C7         22.0940  112.3717   44.7442 AI             0 LIG     -0.190531
      8 C8         24.2805  114.6440   40.7606 AJ             0 LIG     -0.190531
      9 C9         24.4165  111.8631   44.0840 AK             0 LIG     0.084657
     10 C10        25.4705  112.9319   42.0673 AN             0 LIG     0.084657
     11 C11        23.2962  112.7322   44.1049 AO             0 LIG     0.115853
     12 C12        24.4827  113.9454   41.9628 AP             0 LIG     0.115853
     13 C13        27.1764  113.0555   46.2630 AQ             0 LIG     -0.353988
     14 C14        27.8499  114.7969   42.9113 AV             0 LIG     -0.185375
     15 C15        27.1809  115.6460   45.1059 AW             0 LIG     -0.185375
     16 C16        26.9113  112.1422   43.7285 AX             0 LIG     0.002465
     17 C17        27.4962  113.1552   44.7427 AY             1 LIG     0.085935
     18 N1         25.5332  112.1911   43.2748 AZ             0 LIG     -0.190232
     19 N2         27.1278  114.4977   44.1709 BB             0 LIG     0.109280
     20 S1         23.3994  114.2884   43.3006 BC             0 LIG     -0.188456
     21 H1         23.0599  109.3336   45.9578 BD             0 LIG     0.166423
     22 H2         26.6099  113.0929   38.8279 BF             0 LIG     0.166423
     23 H3         21.0688  110.8158   45.8536 BG             0 LIG     0.166423
     24 H4         24.8361  114.8317   38.6918 BH             0 LIG     0.166423
     25 H5         25.1899  110.0196   44.9528 BJ             0 LIG     0.128375
     26 H6         27.0232  111.8779   40.9352 BK             0 LIG     0.128375
     27 H7         21.2397  113.0281   44.7094 BL             0 LIG     0.178440
     28 H8         23.4783  115.3668   40.7079 BM             0 LIG     0.178440
     29 H9         27.2722  112.0580   46.6640 BN             0 LIG     0.122803
     30 H10        26.1776  113.3882   46.5255 BO             0 LIG     0.122803
     31 H11        27.8986  113.6227   46.8528 BP             0 LIG     0.122803
     32 H12        28.9205  114.9125   43.0927 BQ             0 LIG     0.123915
     33 H13        27.4912  115.7275   42.4572 BS             0 LIG     0.123915
     34 H14        27.7207  114.0176   42.1551 BT             0 LIG     0.123915
     35 H15        28.1722  115.7473   45.5411 BU             0 LIG     0.123915
     36 H16        26.4525  115.5563   45.9091 BV             0 LIG     0.123915
     37 H17        26.9440  116.5822   44.5933 BW             0 LIG     0.123915
     38 H18        27.5242  112.2038   42.8128 BX             0 LIG     0.090289
     39 H19        26.8810  111.1326   44.1588 BY             0 LIG     0.090289
     40 H20        28.5781  113.0593   44.6704 BZ             0 LIG     0.141962
     41 H21        26.1526  114.4100   43.9141 CB             0 LIG     0.213953
@<TRIPOS>BOND
        1  1  3  2
        2  1  5  1
        3  1  21  1
        4  2  4  2
        5  2  6  1
        6  2  22  1
        7  3  7  1
        8  3  23  1
        9  4  8  1
        10  4  24  1
        11  5  9  2
        12  5  25  1
        13  6  10  2
        14  6  26  1
        15  7  11  2
        16  7  27  1
        17  8  12  2
        18  8  28  1
        19  9  11  1
        20  9  18  1
        21  10  12  1
        22  10  18  1
        23  11  20  1
        24  12  20  1
        25  13  17  1
        26  13  29  1
        27  13  30  1
        28  13  31  1
        29  14  19  1
        30  14  32  1
        31  14  33  1
        32  14  34  1
        33  15  19  1
        34  15  35  1
        35  15  36  1
        36  15  37  1
        37  16  17  1
        38  16  18  1
        39  16  38  1
        40  16  39  1
        41  17  19  1
        42  17  40  1
        43  19  41  1
@<TRIPOS>SUBSTRUCTURE
       1 LIG             1 RESIDUE    0 **** ROOT      0

