@<TRIPOS>MOLECULE
LIG
41 43
SMALL
USER_CHARGES
@<TRIPOS>ATOM
      1 C1         23.0924  110.1733   45.3320 PA             0 LIG     -0.151978
      2 C2         26.0717  113.3301   39.7279 PB             0 LIG     -0.151978
      3 C3         22.1217  111.1246   45.5513 PD             0 LIG     -0.151978
      4 C4         25.2462  114.5036   39.7150 PE             0 LIG     -0.151978
      5 C5         24.2347  110.5696   44.5275 PF             0 LIG     -0.221382
      6 C6         26.0850  112.4565   40.8523 PH             0 LIG     -0.221382
      7 C7         22.2957  112.3875   44.8818 PI             0 LIG     -0.192007
      8 C8         24.4528  114.7754   40.8392 PJ             0 LIG     -0.192007
      9 C9         24.3902  111.8226   43.9449 PK             0 LIG     0.086899
     10 C10        25.2918  112.8105   42.0042 PN             0 LIG     0.086899
     11 C11        23.3756  112.7399   44.0883 PO             0 LIG     0.115779
     12 C12        24.4014  113.9240   41.9044 PP             0 LIG     0.115779
     13 C13        28.4116  115.5563   45.8871 PQ             0 LIG     -0.319173
     14 C14        27.7480  116.8097   43.8617 PV             0 LIG     -0.319173
     15 C15        27.1158  113.1459   44.7910 PW             0 LIG     -0.018118
     16 C16        26.7971  112.0621   43.7445 PX             0 LIG     0.036275
     17 C17        26.9268  114.5790   44.1581 PY             0 LIG     0.012268
     18 N1         25.5056  112.1557   43.1939 PZ             0 LIG     -0.191498
     19 N2         27.2978  115.8531   44.9055 QB             0 LIG     0.153200
     20 S1         23.3930  114.2802   43.3296 QC             0 LIG     -0.201542
     21 H1         23.2636  109.2311   45.8413 QD             0 LIG     0.160898
     22 H2         26.6154  113.1536   38.7786 QF             0 LIG     0.160898
     23 H3         21.2870  110.8471   46.1861 QG             0 LIG     0.160898
     24 H4         25.3551  115.1323   38.7927 QH             0 LIG     0.160898
     25 H5         25.0111  109.8355   44.4492 QJ             0 LIG     0.134456
     26 H6         26.6992  111.5180   40.8085 QK             0 LIG     0.134456
     27 H7         21.5715  113.1840   45.0605 QL             0 LIG     0.174337
     28 H8         23.8830  115.6685   40.8717 QM             0 LIG     0.174337
     29 H9         28.5736  116.3719   46.4757 QN             0 LIG     0.158404
     30 H10        29.3084  115.3359   45.3688 QO             0 LIG     0.158404
     31 H11        28.2921  114.6542   46.4719 QP             0 LIG     0.158404
     32 H12        28.1243  117.7593   44.3358 QQ             0 LIG     0.158404
     33 H13        26.8154  117.0443   43.3024 QS             0 LIG     0.158404
     34 H14        28.4633  116.3389   43.2327 QT             0 LIG     0.158404
     35 H15        26.5101  112.9173   45.7168 QU             0 LIG     0.041463
     36 H16        28.1232  113.0583   45.1695 QV             0 LIG     0.041463
     37 H17        27.5723  111.8893   42.9288 QW             0 LIG     0.085391
     38 H18        26.8148  111.1395   44.2889 QX             0 LIG     0.085391
     39 H19        27.7551  114.6116   43.4071 QY             0 LIG     0.073022
     40 H20        25.9906  114.6779   43.6779 QZ             0 LIG     0.073022
     41 H21        26.5421  116.2814   45.4979 RB             0 LIG     0.265740
@<TRIPOS>BOND
        1  1  3  2
        2  1  5  1
        3  1  21  1
        4  2  4  2
        5  2  6  1
        6  2  22  1
        7  3  7  1
        8  3  23  1
        9  4  8  1
        10  4  24  1
        11  5  9  2
        12  5  25  1
        13  6  10  2
        14  6  26  1
        15  7  11  2
        16  7  27  1
        17  8  12  2
        18  8  28  1
        19  9  11  1
        20  9  18  1
        21  10  12  1
        22  10  18  1
        23  11  20  1
        24  12  20  1
        25  13  19  1
        26  13  29  1
        27  13  30  1
        28  13  31  1
        29  14  19  1
        30  14  32  1
        31  14  33  1
        32  14  34  1
        33  15  16  1
        34  15  17  1
        35  15  35  1
        36  15  36  1
        37  16  18  1
        38  16  37  1
        39  16  38  1
        40  17  19  1
        41  17  39  1
        42  17  40  1
        43  19  41  1
@<TRIPOS>SUBSTRUCTURE
       1 LIG             1 RESIDUE    0 **** ROOT      0

