TDZNS1appS
                    3D
 Structure written by MMmdl.
 52 55  0  0  1  0            999 V2000
   23.1870  110.2745   45.4805 C   0  0  0  0  0  0
   22.1247  111.1972   45.5830 C   0  0  0  0  0  0
   24.3470  110.6076   44.7519 C   0  0  0  0  0  0
   22.2214  112.4483   44.9555 C   0  0  0  0  0  0
   24.2711  114.6432   40.7460 C   0  0  0  0  0  0
   25.0567  114.3268   39.6242 C   0  0  0  0  0  0
   26.2857  112.6762   40.9507 C   0  0  0  0  0  0
   24.4410  111.8453   44.0802 C   0  0  0  0  0  0
   25.4611  112.9446   42.0639 C   0  0  0  0  0  0
   23.3598  112.7603   44.1932 C   0  0  0  0  0  0
   24.4663  113.9459   41.9509 C   0  0  0  0  0  0
   26.0604  113.3434   39.7249 C   0  0  0  0  0  0
   28.9775  114.2773   42.4796 C   0  0  0  0  0  0
   29.8659  115.2055   43.3254 C   0  0  0  0  0  0
   27.4909  114.6139   42.6564 C   0  0  0  0  0  0
   29.3967  115.2764   44.7904 C   0  0  0  0  0  0
   27.0750  114.6440   44.1450 C   0  0  1  0  0  0
   27.4954  115.9715   46.2345 C   0  0  0  0  0  0
   25.9140  113.0787   36.8367 C   0  0  0  0  0  0
   27.0773  113.2416   44.8220 C   0  0  0  0  0  0
   26.8311  112.0588   43.8602 C   0  0  0  0  0  0
   25.5089  112.1407   43.2168 N   0  0  0  0  0  0
   27.9499  115.6292   44.8593 N   0  3  1  0  0  0
   23.4011  114.2819   43.3097 S   0  0  0  0  0  0
   26.9969  112.9429   38.2848 S   0  0  0  0  0  0
   23.1136  109.3106   45.9557 H   0  0  0  0  0  0
   21.2260  110.9363   46.1222 H   0  0  0  0  0  0
   25.1215  109.8642   44.6817 H   0  0  0  0  0  0
   21.4202  113.1691   45.0304 H   0  0  0  0  0  0
   23.4994  115.3936   40.6845 H   0  0  0  0  0  0
   24.8750  114.8328   38.6859 H   0  0  0  0  0  0
   27.0382  111.9143   41.0197 H   0  0  0  0  0  0
   29.2590  114.3630   41.4286 H   0  0  0  0  0  0
   29.1677  113.2399   42.7462 H   0  0  0  0  0  0
   30.9020  114.8612   43.2818 H   0  0  0  0  0  0
   29.8761  116.2080   42.8912 H   0  0  0  0  0  0
   27.2948  115.5916   42.2101 H   0  0  0  0  0  0
   26.8786  113.9111   42.0901 H   0  0  0  0  0  0
   29.5838  114.3292   45.3021 H   0  0  0  0  0  0
   29.9808  116.0330   45.3152 H   0  0  0  0  0  0
   26.0493  115.0394   44.1952 H   0  0  0  0  0  0
   27.6680  115.1540   46.9422 H   0  0  0  0  0  0
   26.4332  116.2243   46.2473 H   0  0  0  0  0  0
   28.0454  116.8440   46.6016 H   0  0  0  0  0  0
   26.4529  112.7615   35.9434 H   0  0  0  0  0  0
   25.5874  114.1075   36.6845 H   0  0  0  0  0  0
   25.0395  112.4383   36.9552 H   0  0  0  0  0  0
   28.0160  113.0784   45.3427 H   0  0  0  0  0  0
   26.3157  113.1974   45.6003 H   0  0  0  0  0  0
   27.5912  112.0181   43.0765 H   0  0  0  0  0  0
   26.9263  111.1159   44.3966 H   0  0  0  0  0  0
   27.8519  116.4862   44.3321 H   0  0  0  0  0  0
  1  2  2  0  0  0
  1  3  1  0  0  0
  1 26  1  0  0  0
  2  4  1  0  0  0
  2 27  1  0  0  0
  3  8  2  0  0  0
  3 28  1  0  0  0
  4 10  2  0  0  0
  4 29  1  0  0  0
  5  6  2  0  0  0
  5 11  1  0  0  0
  5 30  1  0  0  0
  6 12  1  0  0  0
  6 31  1  0  0  0
  7  9  1  0  0  0
  7 12  2  0  0  0
  7 32  1  0  0  0
  8 10  1  0  0  0
  8 22  1  0  0  0
  9 11  2  0  0  0
  9 22  1  0  0  0
 10 24  1  0  0  0
 11 24  1  0  0  0
 12 25  1  0  0  0
 13 14  1  0  0  0
 13 15  1  0  0  0
 13 33  1  0  0  0
 13 34  1  0  0  0
 14 16  1  0  0  0
 14 35  1  0  0  0
 14 36  1  0  0  0
 15 17  1  0  0  0
 15 37  1  0  0  0
 15 38  1  0  0  0
 16 23  1  0  0  0
 16 39  1  0  0  0
 16 40  1  0  0  0
 17 20  1  0  0  0
 17 23  1  0  0  0
 17 41  1  0  0  0
 18 23  1  0  0  0
 18 42  1  0  0  0
 18 43  1  0  0  0
 18 44  1  0  0  0
 19 25  1  0  0  0
 19 45  1  0  0  0
 19 46  1  0  0  0
 19 47  1  0  0  0
 20 21  1  0  0  0
 20 48  1  0  0  0
 20 49  1  0  0  0
 21 22  1  0  0  0
 21 50  1  0  0  0
 21 51  1  0  0  0
 23 52  1  0  0  0
M  CHG  1  23   1
M  END
> <s_m_entry_id>
543

> <s_m_entry_name>
TDZNS1appS.1

> <s_m_Source_Path>
/home/emilio/Dropbox/SAMPL9-eglab/mCD/ligsdfs

> <s_m_Source_File>
TDZNS1appS.sdf

> <i_m_Source_File_Index>
1

> <r_epik_Ionization_Penalty>
  0.0017

> <r_epik_State_Penalty>
  0.0011

> <i_epik_Tot_Q>
1

> <s_m_job_name>
ligprep_4

> <chiral flag>
1

> <version>
0

> <i_f3d_flags>
0

> <s_m_subgroup_title>
bCDq->ppS_copy1

> <s_m_subgroupid>
bCDq_copy1->ppS1_copy1_copy1

> <b_m_subgroup_collapsed>
0

$$$$
