@<TRIPOS>MOLECULE
LIG
52 55
SMALL
USER_CHARGES
@<TRIPOS>ATOM
      1 C1         23.0473  110.1197   45.2051 AA             0 LIG     -0.151259
      2 C2         21.9799  111.0326   45.2990 AB             0 LIG     -0.151259
      3 C3         24.2545  110.5005   44.5843 AD             0 LIG     -0.219304
      4 C4         22.1147  112.3294   44.7677 AE             0 LIG     -0.194592
      5 C5         24.3180  114.6824   40.7527 AF             0 LIG     -0.194592
      6 C6         25.1042  114.3634   39.6308 AH             0 LIG     -0.194592
      7 C7         26.2460  112.6353   40.9185 AI             0 LIG     -0.277127
      8 C8         24.3964  111.7959   44.0247 AJ             0 LIG     0.085655
      9 C9         25.4487  112.9305   42.0480 AK             0 LIG     0.085655
     10 C10        23.3077  112.7029   44.1238 AN             0 LIG     0.112307
     11 C11        24.4801  113.9607   41.9526 AO             0 LIG     0.112307
     12 C12        26.0668  113.3429   39.7127 AP             0 LIG     0.162844
     13 C13        28.3441  116.3284   43.6806 AQ             0 LIG     -0.032521
     14 C14        28.7887  116.9274   44.9917 AV             0 LIG     -0.034488
     15 C15        28.2578  114.8292   43.9086 AW             0 LIG     -0.055761
     16 C16        27.8337  116.5008   46.1146 AX             0 LIG     -0.006430
     17 C17        27.3008  114.3584   44.9901 AY             1 LIG     0.133288
     18 C18        26.9125  114.6504   47.4267 AZ             0 LIG     -0.176010
     19 C19        26.1233  113.5801   36.8232 BB             0 LIG     -0.159669
     20 C20        27.2617  112.7993   45.0496 BC             0 LIG     -0.036260
     21 C21        26.7974  111.9867   43.7997 BD             0 LIG     0.036576
     22 N1         25.4989  112.1480   43.2225 BF             0 LIG     -0.187743
     23 N2         27.7307  115.0144   46.2539 BG             2 LIG     -0.192054
     24 S1         23.4044  114.2750   43.3165 BH             0 LIG     -0.197945
     25 S2         26.9959  112.9228   38.2689 BJ             0 LIG     -0.259338
     26 H1         22.9126  109.1069   45.5622 BK             0 LIG     0.162335
     27 H2         21.0398  110.7223   45.7325 BL             0 LIG     0.162335
     28 H3         25.0324  109.7621   44.4638 BM             0 LIG     0.137375
     29 H4         21.2769  113.0072   44.7912 BN             0 LIG     0.176356
     30 H5         23.5508  115.4383   40.6754 BO             0 LIG     0.176356
     31 H6         24.9396  114.8671   38.6875 BP             0 LIG     0.176356
     32 H7         26.9325  111.8057   40.9455 BQ             0 LIG     0.141006
     33 H8         27.3688  116.7043   43.3599 BS             0 LIG     0.046484
     34 H9         29.0376  116.5489   42.8653 BT             0 LIG     0.046484
     35 H10        29.8086  116.6106   45.2072 BU             0 LIG     0.051372
     36 H11        28.8057  118.0073   44.8950 BV             0 LIG     0.051372
     37 H12        27.7830  114.4942   43.0275 BW             0 LIG     0.048966
     38 H13        29.2420  114.3621   43.9840 BX             0 LIG     0.048966
     39 H14        28.1930  116.9283   47.0474 BY             0 LIG     0.095743
     40 H15        26.8452  116.9191   45.9322 BZ             0 LIG     0.095743
     41 H16        26.3004  114.7124   44.7140 CB             0 LIG     0.086415
     42 H17        25.8606  114.8755   47.2566 CI             0 LIG     0.129026
     43 H18        27.2372  115.2042   48.3036 CJ             0 LIG     0.129026
     44 H19        27.0063  113.5946   47.6772 CK             0 LIG     0.129026
     45 H20        26.6142  113.2415   35.9106 CM             0 LIG     0.110256
     46 H21        26.1250  114.6703   36.8246 CN             0 LIG     0.110256
     47 H22        25.0941  113.2240   36.8136 CT             0 LIG     0.110256
     48 H23        28.1768  112.3943   45.4806 CW             0 LIG     0.037623
     49 H24        26.4893  112.5602   45.7873 DA             0 LIG     0.037623
     50 H25        27.4613  112.2641   42.9611 DB             0 LIG     0.084613
     51 H26        26.9770  110.9112   43.9820 DC             0 LIG     0.084613
     52 H27        28.6714  114.6880   46.4221 DD             0 LIG     0.326325
@<TRIPOS>BOND
        1  1  2  2
        2  1  3  1
        3  1  26  1
        4  2  4  1
        5  2  27  1
        6  3  8  2
        7  3  28  1
        8  4  10  2
        9  4  29  1
        10  5  6  1
        11  5  11  2
        12  5  30  1
        13  6  12  2
        14  6  31  1
        15  7  9  2
        16  7  12  1
        17  7  32  1
        18  8  10  1
        19  8  22  1
        20  9  11  1
        21  9  22  1
        22  10  24  1
        23  11  24  1
        24  12  25  1
        25  13  14  1
        26  13  15  1
        27  13  33  1
        28  13  34  1
        29  14  16  1
        30  14  35  1
        31  14  36  1
        32  15  17  1
        33  15  37  1
        34  15  38  1
        35  16  23  1
        36  16  39  1
        37  16  40  1
        38  17  20  1
        39  17  23  1
        40  17  41  1
        41  18  23  1
        42  18  42  1
        43  18  43  1
        44  18  44  1
        45  19  25  1
        46  19  45  1
        47  19  46  1
        48  19  47  1
        49  20  21  1
        50  20  48  1
        51  20  49  1
        52  21  22  1
        53  21  50  1
        54  21  51  1
        55  23  52  1
@<TRIPOS>SUBSTRUCTURE
       1 LIG             1 RESIDUE    0 **** ROOT      0

