@<TRIPOS>MOLECULE
LIG
52 55
SMALL
USER_CHARGES
@<TRIPOS>ATOM
      1 C1         23.1870  110.2745   45.4805 AA             0 LIG     -0.151741
      2 C2         22.1247  111.1972   45.5830 AB             0 LIG     -0.151741
      3 C3         24.3470  110.6076   44.7519 AD             0 LIG     -0.220252
      4 C4         22.2214  112.4483   44.9555 AE             0 LIG     -0.194616
      5 C5         24.2711  114.6432   40.7460 AF             0 LIG     -0.194616
      6 C6         25.0567  114.3268   39.6242 AH             0 LIG     -0.194616
      7 C7         26.2857  112.6762   40.9507 AI             0 LIG     -0.276550
      8 C8         24.4410  111.8453   44.0802 AJ             0 LIG     0.084603
      9 C9         25.4611  112.9446   42.0639 AK             0 LIG     0.084603
     10 C10        23.3598  112.7603   44.1932 AN             0 LIG     0.112404
     11 C11        24.4663  113.9459   41.9509 AO             0 LIG     0.112404
     12 C12        26.0604  113.3434   39.7249 AP             0 LIG     0.163041
     13 C13        28.9775  114.2773   42.4796 AQ             0 LIG     -0.029878
     14 C14        29.8659  115.2055   43.3254 AV             0 LIG     -0.034345
     15 C15        27.4909  114.6139   42.6564 AW             0 LIG     -0.054555
     16 C16        29.3967  115.2764   44.7904 AX             0 LIG     0.011138
     17 C17        27.0750  114.6440   44.1450 AY             1 LIG     0.149935
     18 C18        27.4954  115.9715   46.2345 AZ             0 LIG     -0.244054
     19 C19        25.9140  113.0787   36.8367 BB             0 LIG     -0.160589
     20 C20        27.0773  113.2416   44.8220 BC             0 LIG     -0.033239
     21 C21        26.8311  112.0588   43.8602 BD             0 LIG     0.039575
     22 N1         25.5089  112.1407   43.2168 BF             0 LIG     -0.187004
     23 N2         27.9499  115.6292   44.8593 BG             1 LIG     -0.070769
     24 S1         23.4011  114.2819   43.3097 BH             0 LIG     -0.197900
     25 S2         26.9969  112.9429   38.2848 BJ             0 LIG     -0.258446
     26 H1         23.1136  109.3106   45.9557 BK             0 LIG     0.161610
     27 H2         21.2260  110.9363   46.1222 BL             0 LIG     0.161610
     28 H3         25.1215  109.8642   44.6817 BM             0 LIG     0.136076
     29 H4         21.4202  113.1691   45.0304 BN             0 LIG     0.176324
     30 H5         23.4994  115.3936   40.6845 BO             0 LIG     0.176324
     31 H6         24.8750  114.8328   38.6859 BP             0 LIG     0.176324
     32 H7         27.0382  111.9143   41.0197 BQ             0 LIG     0.140791
     33 H8         29.2590  114.3630   41.4286 BS             0 LIG     0.046381
     34 H9         29.1677  113.2399   42.7462 BT             0 LIG     0.046381
     35 H10        30.9020  114.8612   43.2818 BU             0 LIG     0.049941
     36 H11        29.8761  116.2080   42.8912 BV             0 LIG     0.049941
     37 H12        27.2948  115.5916   42.2101 BW             0 LIG     0.046927
     38 H13        26.8786  113.9111   42.0901 BX             0 LIG     0.046927
     39 H14        29.5838  114.3292   45.3021 BY             0 LIG     0.081886
     40 H15        29.9808  116.0330   45.3152 BZ             0 LIG     0.081886
     41 H16        26.0493  115.0394   44.1952 CB             0 LIG     0.038290
     42 H17        27.6680  115.1540   46.9422 CI             0 LIG     0.142123
     43 H18        26.4332  116.2243   46.2473 CJ             0 LIG     0.142123
     44 H19        28.0454  116.8440   46.6016 CK             0 LIG     0.142123
     45 H20        26.4529  112.7615   35.9434 CM             0 LIG     0.110774
     46 H21        25.5874  114.1075   36.6845 CN             0 LIG     0.110774
     47 H22        25.0395  112.4383   36.9552 CT             0 LIG     0.110774
     48 H23        28.0160  113.0784   45.3427 CW             0 LIG     0.042019
     49 H24        26.3157  113.1974   45.6003 DA             0 LIG     0.042019
     50 H25        27.5912  112.0181   43.0765 DB             0 LIG     0.082888
     51 H26        26.9263  111.1159   44.3966 DC             0 LIG     0.082888
     52 H27        27.8519  116.4862   44.3321 DD             0 LIG     0.271082
@<TRIPOS>BOND
        1  1  2  2
        2  1  3  1
        3  1  26  1
        4  2  4  1
        5  2  27  1
        6  3  8  2
        7  3  28  1
        8  4  10  2
        9  4  29  1
        10  5  6  1
        11  5  11  2
        12  5  30  1
        13  6  12  2
        14  6  31  1
        15  7  9  2
        16  7  12  1
        17  7  32  1
        18  8  10  1
        19  8  22  1
        20  9  11  1
        21  9  22  1
        22  10  24  1
        23  11  24  1
        24  12  25  1
        25  13  14  1
        26  13  15  1
        27  13  33  1
        28  13  34  1
        29  14  16  1
        30  14  35  1
        31  14  36  1
        32  15  17  1
        33  15  37  1
        34  15  38  1
        35  16  23  1
        36  16  39  1
        37  16  40  1
        38  17  20  1
        39  17  23  1
        40  17  41  1
        41  18  23  1
        42  18  42  1
        43  18  43  1
        44  18  44  1
        45  19  25  1
        46  19  45  1
        47  19  46  1
        48  19  47  1
        49  20  21  1
        50  20  48  1
        51  20  49  1
        52  21  22  1
        53  21  50  1
        54  21  51  1
        55  23  52  1
@<TRIPOS>SUBSTRUCTURE
       1 LIG             1 RESIDUE    0 **** ROOT      0

