@<TRIPOS>MOLECULE
LIG
50 53
SMALL
USER_CHARGES
@<TRIPOS>ATOM
      1 C1         22.8813  110.0573   44.9404 AA             0 LIG     -0.146946
      2 C2         21.8388  110.9979   45.0724 AB             0 LIG     -0.146946
      3 C3         24.1056  110.4337   44.3508 AD             0 LIG     -0.213882
      4 C4         22.0267  112.3177   44.6155 AE             0 LIG     -0.189563
      5 C5         24.2326  114.6130   40.7180 AF             0 LIG     -0.189563
      6 C6         25.0323  114.3008   39.6023 AH             0 LIG     -0.186283
      7 C7         26.2724  112.6792   40.9530 AI             0 LIG     -0.267664
      8 C8         24.3348  111.7630   43.9099 AJ             0 LIG     0.094519
      9 C9         25.4442  112.9400   42.0613 AK             0 LIG     0.094519
     10 C10        23.2545  112.6816   44.0249 AN             0 LIG     0.116195
     11 C11        24.4422  113.9341   41.9442 AO             0 LIG     0.116195
     12 C12        26.0620  113.3444   39.7197 AP             0 LIG     -0.069395
     13 C13        26.4302  117.1967   44.4967 AQ             0 LIG     -0.041121
     14 C14        28.5226  116.0620   45.0445 AV             0 LIG     -0.041121
     15 C15        26.8200  118.3146   45.4893 AW             0 LIG     0.063286
     16 C16        28.8750  117.2061   46.0130 AX             0 LIG     0.063286
     17 C17        27.1999  113.4387   44.5768 AY             0 LIG     -0.016690
     18 C18        26.8339  112.1096   43.8955 AZ             0 LIG     0.028631
     19 C19        26.5922  114.7560   44.0648 BB             0 LIG     -0.059139
     20 N1         25.5193  112.1282   43.2200 BC             0 LIG     -0.187888
     21 N2         27.0402  115.9090   44.9084 BD             0 LIG     -0.035261
     22 N3         28.2739  118.4548   45.5575 BF             0 LIG     -0.795699
     23 F1         26.8386  111.6568   38.3122 BG             0 LIG     -0.251326
     24 F2         28.1902  113.2761   38.8123 BH             0 LIG     -0.251326
     25 F3         26.5671  113.6108   37.4100 BJ             0 LIG     -0.251326
     26 S1         23.3890  114.2935   43.3117 BK             0 LIG     -0.162784
     27 C20        26.9266  112.9703   38.5257 BL             0 LIG     0.697269
     28 H1         22.7056  109.0364   45.2479 BM             0 LIG     0.171877
     29 H2         20.8819  110.6972   45.4825 BN             0 LIG     0.171877
     30 H3         24.8379  109.6651   44.1706 BO             0 LIG     0.150837
     31 H4         21.2060  113.0277   44.6468 BP             0 LIG     0.186066
     32 H5         23.4203  115.3223   40.6107 BQ             0 LIG     0.186066
     33 H6         24.8524  114.7934   38.6524 BS             0 LIG     0.189607
     34 H7         27.0356  111.9199   40.9935 BT             0 LIG     0.149674
     35 H8         25.3419  117.1019   44.4739 BU             0 LIG     0.093433
     36 H9         26.7517  117.4580   43.4870 BV             0 LIG     0.093433
     37 H10        28.9872  116.2274   44.0717 BW             0 LIG     0.093433
     38 H11        28.9929  115.1752   45.4722 BX             0 LIG     0.093433
     39 H12        26.3887  119.2680   45.1688 BY             0 LIG     0.105981
     40 H13        26.4251  118.1103   46.4897 BZ             0 LIG     0.105981
     41 H14        28.5359  116.9771   47.0278 CB             0 LIG     0.105981
     42 H15        29.9619  117.3257   46.0707 CI             0 LIG     0.105981
     43 H16        27.0202  113.3466   45.6499 CJ             0 LIG     0.044237
     44 H17        28.2637  113.5369   44.3982 CK             0 LIG     0.044237
     45 H18        27.5984  111.8262   43.1712 CM             0 LIG     0.093748
     46 H19        26.8461  111.3346   44.6546 CN             0 LIG     0.093748
     47 H20        26.9246  114.8974   43.0390 CT             0 LIG     0.094892
     48 H21        25.4982  114.7087   44.0150 CW             0 LIG     0.094892
     49 H22        28.6954  118.8211   44.7082 DA             0 LIG     0.419755
     50 H23        26.7075  115.7492   45.8479 DB             0 LIG     0.340852
@<TRIPOS>BOND
        1  1  2  2
        2  1  3  1
        3  1  28  1
        4  2  4  1
        5  2  29  1
        6  3  8  2
        7  3  30  1
        8  4  10  2
        9  4  31  1
        10  5  6  1
        11  5  11  2
        12  5  32  1
        13  6  12  2
        14  6  33  1
        15  7  9  2
        16  7  12  1
        17  7  34  1
        18  8  10  1
        19  8  20  1
        20  9  11  1
        21  9  20  1
        22  10  26  1
        23  11  26  1
        24  12  27  1
        25  13  15  1
        26  13  21  1
        27  13  35  1
        28  13  36  1
        29  14  16  1
        30  14  21  1
        31  14  37  1
        32  14  38  1
        33  15  22  1
        34  15  39  1
        35  15  40  1
        36  16  22  1
        37  16  41  1
        38  16  42  1
        39  17  18  1
        40  17  19  1
        41  17  43  1
        42  17  44  1
        43  18  20  1
        44  18  45  1
        45  18  46  1
        46  19  21  1
        47  19  47  1
        48  19  48  1
        49  21  50  1
        50  22  49  1
        51  23  27  1
        52  24  27  1
        53  25  27  1
@<TRIPOS>SUBSTRUCTURE
       1 LIG             1 RESIDUE    0 **** ROOT      0

