@<TRIPOS>MOLECULE
LIG
50 53
SMALL
USER_CHARGES
@<TRIPOS>ATOM
      1 C1         22.9095  110.0235   44.8847 AA             0 LIG     -0.148793
      2 C2         21.8644  110.9523   45.0301 AB             0 LIG     -0.148793
      3 C3         24.1276  110.4217   44.2936 AD             0 LIG     -0.214109
      4 C4         22.0373  112.2788   44.5899 AE             0 LIG     -0.192215
      5 C5         24.2448  114.6220   40.7328 AF             0 LIG     -0.192215
      6 C6         25.0361  114.3006   39.6134 AH             0 LIG     -0.190417
      7 C7         26.2821  112.6872   40.9606 AI             0 LIG     -0.264320
      8 C8         24.3349  111.7586   43.8864 AJ             0 LIG     0.095370
      9 C9         25.4513  112.9514   42.0706 AK             0 LIG     0.095370
     10 C10        23.2578  112.6736   44.0057 AN             0 LIG     0.116137
     11 C11        24.4474  113.9480   41.9543 AO             0 LIG     0.116137
     12 C12        26.0637  113.3388   39.7271 AP             0 LIG     -0.071581
     13 C13        27.3530  116.2577   46.2104 AQ             0 LIG     0.037365
     14 C14        27.5095  116.6830   43.8393 AV             0 LIG     0.037365
     15 C15        28.6289  117.0920   46.4550 AW             0 LIG     0.086222
     16 C16        28.7832  117.5253   44.0561 AX             0 LIG     0.086222
     17 C17        26.7825  113.2895   45.0683 AY             0 LIG     0.011333
     18 C18        26.7783  112.1989   43.9769 AZ             0 LIG     0.026484
     19 C19        26.3237  114.7024   44.6540 BB             0 LIG     0.037611
     20 N1         25.5212  112.1326   43.2075 BC             0 LIG     -0.178062
     21 N2         27.4275  115.6517   44.8802 BD             0 LIG     -0.528710
     22 N3         28.7701  118.1272   45.4060 BF             0 LIG     -0.527743
     23 F1         28.1901  113.0678   38.8103 BG             0 LIG     -0.255693
     24 F2         26.6212  113.6753   37.4478 BH             0 LIG     -0.255693
     25 F3         26.6553  111.6561   38.2265 BJ             0 LIG     -0.255693
     26 S1         23.3854  114.2946   43.3168 BK             0 LIG     -0.174420
     27 C20        26.8976  112.9330   38.5216 BL             0 LIG     0.695255
     28 H1         22.7541  108.9931   45.1715 BM             0 LIG     0.167075
     29 H2         20.9103  110.6363   45.4311 BN             0 LIG     0.167075
     30 H3         24.8846  109.6767   44.1016 BO             0 LIG     0.157041
     31 H4         21.2103  112.9709   44.6288 BP             0 LIG     0.180382
     32 H5         23.4397  115.3364   40.6274 BQ             0 LIG     0.180382
     33 H6         24.8408  114.7690   38.6550 BS             0 LIG     0.183084
     34 H7         27.0390  111.9224   41.0187 BT             0 LIG     0.171935
     35 H8         27.2998  115.4718   46.9693 BU             0 LIG     0.086347
     36 H9         26.4472  116.8631   46.3033 BV             0 LIG     0.086347
     37 H10        26.6080  117.3014   43.8438 BW             0 LIG     0.086347
     38 H11        27.5772  116.2266   42.8493 BX             0 LIG     0.086347
     39 H12        28.5851  117.5666   47.4373 BY             0 LIG     0.119217
     40 H13        29.5093  116.4466   46.4531 BZ             0 LIG     0.119217
     41 H14        29.6699  116.8999   43.9399 CB             0 LIG     0.119217
     42 H15        28.8482  118.3101   43.3009 CI             0 LIG     0.119217
     43 H16        26.0857  112.9857   45.8389 CJ             0 LIG     0.035265
     44 H17        27.7830  113.3270   45.5025 CK             0 LIG     0.035265
     45 H18        27.5967  112.3613   43.2722 CM             0 LIG     0.085093
     46 H19        26.9731  111.2300   44.4464 CN             0 LIG     0.085093
     47 H20        25.9591  114.7447   43.6206 CT             0 LIG     0.068063
     48 H21        25.4829  114.9820   45.2900 CW             0 LIG     0.068063
     49 H22        27.9810  118.7524   45.4671 DA             0 LIG     0.375757
     50 H23        29.6205  118.6489   45.5548 DB             0 LIG     0.375757
@<TRIPOS>BOND
        1  1  2  2
        2  1  3  1
        3  1  28  1
        4  2  4  1
        5  2  29  1
        6  3  8  2
        7  3  30  1
        8  4  10  2
        9  4  31  1
        10  5  6  1
        11  5  11  2
        12  5  32  1
        13  6  12  2
        14  6  33  1
        15  7  9  2
        16  7  12  1
        17  7  34  1
        18  8  10  1
        19  8  20  1
        20  9  11  1
        21  9  20  1
        22  10  26  1
        23  11  26  1
        24  12  27  1
        25  13  15  1
        26  13  21  1
        27  13  35  1
        28  13  36  1
        29  14  16  1
        30  14  21  1
        31  14  37  1
        32  14  38  1
        33  15  22  1
        34  15  39  1
        35  15  40  1
        36  16  22  1
        37  16  41  1
        38  16  42  1
        39  17  18  1
        40  17  19  1
        41  17  43  1
        42  17  44  1
        43  18  20  1
        44  18  45  1
        45  18  46  1
        46  19  21  1
        47  19  47  1
        48  19  48  1
        49  22  49  1
        50  22  50  1
        51  23  27  1
        52  24  27  1
        53  25  27  1
@<TRIPOS>SUBSTRUCTURE
       1 LIG             1 RESIDUE    0 **** ROOT      0

