TFP1appS
                    3D
 Structure written by MMmdl.
 50 53  0  0  1  0            999 V2000
   22.9095  110.0235   44.8847 C   0  0  0  0  0  0
   21.8644  110.9523   45.0301 C   0  0  0  0  0  0
   24.1276  110.4217   44.2936 C   0  0  0  0  0  0
   22.0373  112.2788   44.5899 C   0  0  0  0  0  0
   24.2448  114.6220   40.7328 C   0  0  0  0  0  0
   25.0361  114.3006   39.6134 C   0  0  0  0  0  0
   26.2821  112.6872   40.9606 C   0  0  0  0  0  0
   24.3349  111.7586   43.8864 C   0  0  0  0  0  0
   25.4513  112.9514   42.0706 C   0  0  0  0  0  0
   23.2578  112.6736   44.0057 C   0  0  0  0  0  0
   24.4474  113.9480   41.9543 C   0  0  0  0  0  0
   26.0637  113.3388   39.7271 C   0  0  0  0  0  0
   27.3530  116.2577   46.2104 C   0  0  0  0  0  0
   27.5095  116.6830   43.8393 C   0  0  0  0  0  0
   28.6289  117.0920   46.4550 C   0  0  0  0  0  0
   28.7832  117.5253   44.0561 C   0  0  0  0  0  0
   26.7825  113.2895   45.0683 C   0  0  0  0  0  0
   26.7783  112.1989   43.9769 C   0  0  0  0  0  0
   26.3237  114.7024   44.6540 C   0  0  0  0  0  0
   25.5212  112.1326   43.2075 N   0  0  0  0  0  0
   27.4275  115.6517   44.8802 N   0  0  0  0  0  0
   28.7701  118.1272   45.4060 N   0  3  0  0  0  0
   28.1901  113.0678   38.8103 F   0  0  0  0  0  0
   26.6212  113.6753   37.4478 F   0  0  0  0  0  0
   26.6553  111.6561   38.2265 F   0  0  0  0  0  0
   23.3854  114.2946   43.3168 S   0  0  0  0  0  0
   26.8976  112.9330   38.5216 C   0  0  0  0  0  0
   22.7541  108.9931   45.1715 H   0  0  0  0  0  0
   20.9103  110.6363   45.4311 H   0  0  0  0  0  0
   24.8846  109.6767   44.1016 H   0  0  0  0  0  0
   21.2103  112.9709   44.6288 H   0  0  0  0  0  0
   23.4397  115.3364   40.6274 H   0  0  0  0  0  0
   24.8408  114.7690   38.6550 H   0  0  0  0  0  0
   27.0390  111.9224   41.0187 H   0  0  0  0  0  0
   27.2998  115.4718   46.9693 H   0  0  0  0  0  0
   26.4472  116.8631   46.3033 H   0  0  0  0  0  0
   26.6080  117.3014   43.8438 H   0  0  0  0  0  0
   27.5772  116.2266   42.8493 H   0  0  0  0  0  0
   28.5851  117.5666   47.4373 H   0  0  0  0  0  0
   29.5093  116.4466   46.4531 H   0  0  0  0  0  0
   29.6699  116.8999   43.9399 H   0  0  0  0  0  0
   28.8482  118.3101   43.3009 H   0  0  0  0  0  0
   26.0857  112.9857   45.8389 H   0  0  0  0  0  0
   27.7830  113.3270   45.5025 H   0  0  0  0  0  0
   27.5967  112.3613   43.2722 H   0  0  0  0  0  0
   26.9731  111.2300   44.4464 H   0  0  0  0  0  0
   25.9591  114.7447   43.6206 H   0  0  0  0  0  0
   25.4829  114.9820   45.2900 H   0  0  0  0  0  0
   27.9810  118.7524   45.4671 H   0  0  0  0  0  0
   29.6205  118.6489   45.5548 H   0  0  0  0  0  0
  1  2  2  0  0  0
  1  3  1  0  0  0
  1 28  1  0  0  0
  2  4  1  0  0  0
  2 29  1  0  0  0
  3  8  2  0  0  0
  3 30  1  0  0  0
  4 10  2  0  0  0
  4 31  1  0  0  0
  5  6  2  0  0  0
  5 11  1  0  0  0
  5 32  1  0  0  0
  6 12  1  0  0  0
  6 33  1  0  0  0
  7  9  1  0  0  0
  7 12  2  0  0  0
  7 34  1  0  0  0
  8 10  1  0  0  0
  8 20  1  0  0  0
  9 11  2  0  0  0
  9 20  1  0  0  0
 10 26  1  0  0  0
 11 26  1  0  0  0
 12 27  1  0  0  0
 13 15  1  0  0  0
 13 21  1  0  0  0
 13 35  1  0  0  0
 13 36  1  0  0  0
 14 16  1  0  0  0
 14 21  1  0  0  0
 14 37  1  0  0  0
 14 38  1  0  0  0
 15 22  1  0  0  0
 15 39  1  0  0  0
 15 40  1  0  0  0
 16 22  1  0  0  0
 16 41  1  0  0  0
 16 42  1  0  0  0
 17 18  1  0  0  0
 17 19  1  0  0  0
 17 43  1  0  0  0
 17 44  1  0  0  0
 18 20  1  0  0  0
 18 45  1  0  0  0
 18 46  1  0  0  0
 19 21  1  0  0  0
 19 47  1  0  0  0
 19 48  1  0  0  0
 22 49  1  0  0  0
 22 50  1  0  0  0
 23 27  1  0  0  0
 24 27  1  0  0  0
 25 27  1  0  0  0
M  CHG  1  22   1
M  END
> <s_m_entry_id>
545

> <s_m_entry_name>
TFP1appS.1

> <s_m_Source_Path>
/home/emilio/Dropbox/SAMPL9-eglab/mCD/ligsdfs

> <s_m_Source_File>
TFP1appS.sdf

> <i_m_Source_File_Index>
1

> <r_epik_Ionization_Penalty>
  0.0078

> <r_epik_State_Penalty>
  0.0420

> <i_epik_Tot_Q>
1

> <s_m_job_name>
ligprep_4

> <chiral flag>
1

> <version>
0

> <i_f3d_flags>
0

> <s_m_subgroup_title>
bCDq->ppS_copy1

> <s_m_subgroupid>
bCDq_copy1->ppS1_copy1_copy1

> <b_m_subgroup_collapsed>
0

$$$$
