@<TRIPOS>MOLECULE
LIG
147 154
SMALL
USER_CHARGES
@<TRIPOS>ATOM
      1 C1         31.8034  106.6646   48.9996 aa             2 LIG     0.429587
      2 C2         30.3277  106.1228   49.0956 ab             1 LIG     0.201964
      3 C3         29.4436  106.8793   48.0432 ad             2 LIG     0.216381
      4 C4         29.5462  108.3910   48.1357 ae             1 LIG     0.192567
      5 C5         31.1192  108.7919   48.0422 af             1 LIG     0.192567
      6 C6         31.5066  110.3013   48.0660 ah             0 LIG     0.180165
      7 C7         35.7743  104.6935   45.7475 ai             2 LIG     0.429587
      8 C8         34.7091  103.6968   46.4798 aj             1 LIG     0.201964
      9 C9         33.3529  104.4103   46.6982 ak             2 LIG     0.216381
     10 C10        33.6202  105.7200   47.5043 an             1 LIG     0.192567
     11 C11        34.6365  106.6156   46.7674 ao             1 LIG     0.192567
     12 C12        35.0762  107.7566   47.6461 ap             0 LIG     0.180165
     13 C13        36.2761  104.1953   40.4646 aq             2 LIG     0.429587
     14 C14        35.3053  103.1086   41.1621 av             1 LIG     0.201964
     15 C15        34.6984  103.8067   42.4480 aw             2 LIG     0.216381
     16 C16        35.8686  104.2587   43.3724 ax             1 LIG     0.192567
     17 C17        36.8811  105.1690   42.6236 ay             1 LIG     0.192567
     18 C18        38.1920  105.4947   43.3918 az             0 LIG     0.180165
     19 C19        34.8504  108.1893   37.2331 bb             2 LIG     0.429587
     20 C20        34.4439  106.7332   36.9207 bc             1 LIG     0.201964
     21 C21        34.4349  105.9048   38.1622 bd             2 LIG     0.216381
     22 C22        35.8626  105.9645   38.8133 bf             1 LIG     0.192567
     23 C23        36.3344  107.4168   38.9958 bg             1 LIG     0.192567
     24 C24        37.8510  107.4865   39.4185 bh             0 LIG     0.180165
     25 C25        31.3346  112.0790   38.8050 bj             2 LIG     0.429587
     26 C26        31.1402  111.2637   37.5546 bk             1 LIG     0.201964
     27 C27        31.7765  109.8055   37.7307 bl             2 LIG     0.216381
     28 C28        33.3165  109.9851   37.9510 bm             1 LIG     0.192567
     29 C29        33.5336  110.9416   39.1581 bn             1 LIG     0.192567
     30 C30        35.0261  111.2331   39.4197 bo             0 LIG     0.180165
     31 C31        27.9081  112.6083   42.9828 bp             2 LIG     0.429587
     32 C32        27.6264  113.0057   41.4762 bq             1 LIG     0.201964
     33 C33        28.4209  112.1007   40.5227 bs             2 LIG     0.216381
     34 C34        29.9258  112.2835   40.8551 bt             1 LIG     0.192567
     35 C35        30.1329  111.8285   42.3405 bu             1 LIG     0.192567
     36 C36        31.6314  111.8351   42.7514 bv             0 LIG     0.180165
     37 C37        27.5311  109.4782   47.1662 bw             1 LIG     0.429587
     38 C38        26.6427  108.8188   45.9961 bx             1 LIG     0.201964
     39 C39        26.9896  109.3750   44.6326 by             2 LIG     0.216381
     40 C40        27.0854  110.9855   44.5931 bz             1 LIG     0.192567
     41 C41        27.9655  111.5336   45.7678 cb             1 LIG     0.192567
     42 C42        28.0968  113.0556   46.0169 ci             0 LIG     0.180165
     43 O1         30.3708  104.6993   48.8706 cj             0 LIG     -0.741075
     44 O2         28.0317  106.4720   48.1046 ck             0 LIG     -0.741075
     45 O3         28.8992  108.9899   46.9973 cm             0 LIG     -0.544165
     46 O4         31.8560  108.1188   49.1205 cn             0 LIG     -0.544165
     47 O5         31.1687  110.9140   49.3492 ct             0 LIG     -0.741075
     48 O6         34.4905  102.5023   45.6749 cw             0 LIG     -0.741075
     49 O7         32.3794  103.5647   47.3252 da             0 LIG     -0.741075
     50 O8         32.2462  106.3174   47.6729 db             0 LIG     -0.544165
     51 O9         35.8588  105.9215   46.5006 dc             0 LIG     -0.544165
     52 O10        35.9275  108.6551   46.8670 dd             0 LIG     -0.741075
     53 O11        34.2262  102.6241   40.3302 de             0 LIG     -0.741075
     54 O12        33.7979  102.9053   43.1597 df             0 LIG     -0.741075
     55 O13        35.2779  105.0821   44.4420 dg             0 LIG     -0.544165
     56 O14        37.2893  104.5168   41.3879 dh             0 LIG     -0.544165
     57 O15        39.0077  104.3663   43.4308 di             0 LIG     -0.741075
     58 O16        33.0694  106.7010   36.4396 dj             0 LIG     -0.741075
     59 O17        33.8583  104.5756   37.9653 dk             0 LIG     -0.741075
     60 O18        35.5730  105.4547   40.1240 dl             0 LIG     -0.544165
     61 O19        36.1720  108.2553   37.7975 dm             0 LIG     -0.544165
     62 O20        38.3373  108.7361   39.7664 dn             0 LIG     -0.741075
     63 O21        29.7168  111.0717   37.2613 do             0 LIG     -0.741075
     64 O22        31.5826  109.0683   36.5730 dp             0 LIG     -0.741075
     65 O23        34.0054  108.7184   38.2191 dq             0 LIG     -0.544165
     66 O24        32.7571  112.1963   38.9686 dr             0 LIG     -0.544165
     67 O25        35.1246  112.2868   40.2816 ds             0 LIG     -0.741075
     68 O26        26.2069  112.9070   41.0801 dt             0 LIG     -0.741075
     69 O27        28.1592  112.5001   39.2045 dv             0 LIG     -0.741075
     70 O28        30.6799  111.4559   39.9267 dw             0 LIG     -0.544165
     71 O29        29.2769  112.6944   43.1812 dx             0 LIG     -0.544165
     72 O30        32.1894  113.1124   42.5566 dz             0 LIG     -0.741075
     73 O31        26.8100  107.3928   46.0173 ea             0 LIG     -0.741075
     74 O32        26.0740  108.9188   43.6578 eb             0 LIG     -0.741075
     75 O33        27.5243  111.2860   43.2672 ec             0 LIG     -0.544165
     76 O34        27.5550  110.9246   47.1235 ed             0 LIG     -0.544165
     77 O35        26.7646  113.7243   46.0000 ee             0 LIG     -0.741075
     78 H1         35.5487  107.3630   48.5316 ef             0 LIG     0.065605
     79 H2         34.1787  108.2794   48.0017 eg             0 LIG     0.065605
     80 H3         31.0094  104.5434   48.1360 eh             0 LIG     0.491666
     81 H4         27.8320  106.2482   49.0711 ei             0 LIG     0.491666
     82 H5         31.9609  110.8930   49.8799 ej             0 LIG     0.491666
     83 H6         34.1688  102.7715   44.7564 ek             0 LIG     0.491666
     84 H7         32.8704  102.7218   47.4374 el             0 LIG     0.491666
     85 H8         36.4326  108.1457   46.1632 em             0 LIG     0.491666
     86 H9         34.6642  101.8168   39.7977 en             0 LIG     0.491666
     87 H10        33.6192  102.1650   42.5399 eo             0 LIG     0.491666
     88 H11        38.8661  103.9895   42.4452 eq             0 LIG     0.491666
     89 H12        32.8075  105.7489   36.4306 es             0 LIG     0.491666
     90 H13        33.7114  104.2580   38.9329 et             0 LIG     0.491666
     91 H14        38.0581  109.3565   39.0316 ev             0 LIG     0.491666
     92 H15        29.2451  111.5214   38.0238 ew             0 LIG     0.491666
     93 H16        32.0681  108.2041   36.7414 ex             0 LIG     0.491666
     94 H17        34.5432  113.0313   39.9123 ey             0 LIG     0.491666
     95 H18        26.0650  111.9065   41.2277 ez             0 LIG     0.491666
     96 H19        27.4177  113.1884   39.2780 fa             0 LIG     0.491666
     97 H20        31.8606  113.6530   43.2986 fb             0 LIG     0.491666
     98 H21        27.3780  107.2116   46.8430 fc             0 LIG     0.491666
     99 H22        25.7324  109.7351   43.1714 fd             0 LIG     0.491666
    100 H23        26.1680  113.2073   46.5399 ff             0 LIG     0.491666
    101 H24        32.4154  106.1906   49.7943 fg             0 LIG     0.064779
    102 H25        29.9405  106.2793   50.1055 fh             0 LIG     0.061814
    103 H26        29.8447  106.6182   47.0061 fi             0 LIG     0.054082
    104 H27        29.1462  108.7135   49.0468 fj             0 LIG     0.055721
    105 H28        31.5070  108.4261   47.0631 fk             0 LIG     0.055721
    106 H29        32.5148  110.4564   47.8342 fl             0 LIG     0.065605
    107 H30        30.8243  110.7924   47.2892 fm             0 LIG     0.065605
    108 H31        36.7468  104.1284   45.6156 fn             0 LIG     0.064779
    109 H32        35.1087  103.4277   47.5255 fo             0 LIG     0.061814
    110 H33        33.0040  104.6086   45.6619 fp             0 LIG     0.054082
    111 H34        34.0614  105.4774   48.4193 fq             0 LIG     0.055721
    112 H35        34.1853  106.9784   45.8501 fs             0 LIG     0.055721
    113 H36        36.7009  103.8750   39.5255 ft             0 LIG     0.064779
    114 H37        35.9905  102.2633   41.5004 fu             0 LIG     0.061814
    115 H38        34.1635  104.7796   42.2153 fv             0 LIG     0.054082
    116 H39        36.3899  103.3912   43.7211 fw             0 LIG     0.055721
    117 H40        36.4845  106.1689   42.3744 fx             0 LIG     0.055721
    118 H41        37.9147  105.8709   44.4379 fy             0 LIG     0.065605
    119 H42        38.6114  106.3618   42.8061 fz             0 LIG     0.065605
    120 H43        34.8845  108.8535   36.3427 gb             0 LIG     0.064779
    121 H44        35.1702  106.3038   36.2293 gc             0 LIG     0.061814
    122 H45        33.7203  106.4364   38.8842 gf             0 LIG     0.054082
    123 H46        36.5619  105.3485   38.2234 gg             0 LIG     0.055721
    124 H47        35.6821  107.7902   39.7892 gh             0 LIG     0.055721
    125 H48        38.0972  106.7277   40.2028 gi             0 LIG     0.065605
    126 H49        38.4046  107.0884   38.5113 gj             0 LIG     0.065605
    127 H50        31.0020  113.1292   38.7589 gk             0 LIG     0.064779
    128 H51        31.6476  111.8308   36.7405 gl             0 LIG     0.061814
    129 H52        31.4160  109.2994   38.6543 gm             0 LIG     0.054082
    130 H53        33.6859  110.3824   36.9739 gn             0 LIG     0.055721
    131 H54        33.1127  110.4675   40.0833 go             0 LIG     0.055721
    132 H55        35.4837  110.3966   39.8985 gp             0 LIG     0.065605
    133 H56        35.4748  111.4511   38.4940 gq             0 LIG     0.065605
    134 H57        27.4441  113.2665   43.6985 gr             0 LIG     0.064779
    135 H58        27.9164  114.0733   41.3910 gs             0 LIG     0.061814
    136 H59        28.1302  111.0420   40.7491 gt             0 LIG     0.054082
    137 H60        30.2912  113.3301   40.8249 gu             0 LIG     0.055721
    138 H61        29.7144  110.8263   42.2925 gv             0 LIG     0.055721
    139 H62        31.7702  111.6144   43.8281 gw             0 LIG     0.065605
    140 H63        32.2092  111.0119   42.2088 gx             0 LIG     0.065605
    141 H64        27.0587  109.1398   48.0707 gy             0 LIG     0.064779
    142 H65        25.6163  108.9428   46.2294 gz             0 LIG     0.061814
    143 H66        28.0077  109.1142   44.3184 hb             0 LIG     0.054082
    144 H67        26.0883  111.3280   44.8964 hd             0 LIG     0.055721
    145 H68        28.9636  111.1765   45.4854 hh             0 LIG     0.055721
    146 H69        28.7776  113.5665   45.3249 hi             0 LIG     0.065605
    147 H70        28.5369  113.2946   46.9929 hj             0 LIG     0.065605
@<TRIPOS>BOND
        1  1  2  1
        2  1  46  1
        3  1  50  1
        4  1  101  1
        5  2  3  1
        6  2  43  1
        7  2  102  1
        8  3  4  1
        9  3  44  1
        10  3  103  1
        11  4  5  1
        12  4  45  1
        13  4  104  1
        14  5  6  1
        15  5  46  1
        16  5  105  1
        17  6  47  1
        18  6  106  1
        19  6  107  1
        20  7  8  1
        21  7  51  1
        22  7  55  1
        23  7  108  1
        24  8  9  1
        25  8  48  1
        26  8  109  1
        27  9  10  1
        28  9  49  1
        29  9  110  1
        30  10  11  1
        31  10  50  1
        32  10  111  1
        33  11  12  1
        34  11  51  1
        35  11  112  1
        36  12  52  1
        37  12  78  1
        38  12  79  1
        39  13  14  1
        40  13  56  1
        41  13  60  1
        42  13  113  1
        43  14  15  1
        44  14  53  1
        45  14  114  1
        46  15  16  1
        47  15  54  1
        48  15  115  1
        49  16  17  1
        50  16  55  1
        51  16  116  1
        52  17  18  1
        53  17  56  1
        54  17  117  1
        55  18  57  1
        56  18  118  1
        57  18  119  1
        58  19  20  1
        59  19  61  1
        60  19  65  1
        61  19  120  1
        62  20  21  1
        63  20  58  1
        64  20  121  1
        65  21  22  1
        66  21  59  1
        67  21  122  1
        68  22  23  1
        69  22  60  1
        70  22  123  1
        71  23  24  1
        72  23  61  1
        73  23  124  1
        74  24  62  1
        75  24  125  1
        76  24  126  1
        77  25  26  1
        78  25  66  1
        79  25  70  1
        80  25  127  1
        81  26  27  1
        82  26  63  1
        83  26  128  1
        84  27  28  1
        85  27  64  1
        86  27  129  1
        87  28  29  1
        88  28  65  1
        89  28  130  1
        90  29  30  1
        91  29  66  1
        92  29  131  1
        93  30  67  1
        94  30  132  1
        95  30  133  1
        96  31  32  1
        97  31  71  1
        98  31  75  1
        99  31  134  1
        100  32  33  1
        101  32  68  1
        102  32  135  1
        103  33  34  1
        104  33  69  1
        105  33  136  1
        106  34  35  1
        107  34  70  1
        108  34  137  1
        109  35  36  1
        110  35  71  1
        111  35  138  1
        112  36  72  1
        113  36  139  1
        114  36  140  1
        115  37  38  1
        116  37  45  1
        117  37  76  1
        118  37  141  1
        119  38  39  1
        120  38  73  1
        121  38  142  1
        122  39  40  1
        123  39  74  1
        124  39  143  1
        125  40  41  1
        126  40  75  1
        127  40  144  1
        128  41  42  1
        129  41  76  1
        130  41  145  1
        131  42  77  1
        132  42  146  1
        133  42  147  1
        134  43  80  1
        135  44  81  1
        136  47  82  1
        137  48  83  1
        138  49  84  1
        139  52  85  1
        140  53  86  1
        141  54  87  1
        142  57  88  1
        143  58  89  1
        144  59  90  1
        145  62  91  1
        146  63  92  1
        147  64  93  1
        148  67  94  1
        149  68  95  1
        150  69  96  1
        151  72  97  1
        152  73  98  1
        153  74  99  1
        154  77  100  1
@<TRIPOS>SUBSTRUCTURE
       1 LIG             1 RESIDUE    0 **** ROOT      0

