bCDH26DM
                    3D

189196  0  0  1  0            999 V2000
   24.4265  114.1988   43.1577  C    0  0  2  0  0  0
   24.3260  113.3072   41.8769  C    0  0  1  0  0  0
   25.1946  112.0384   42.0155  C    0  0  2  0  0  0
   26.7048  112.3737   42.2869  C    0  0  1  0  0  0
   26.6735  113.1770   43.6344  C    0  0  1  0  0  0
   28.0843  113.3774   44.3299  C    0  0  0  0  0  0
   22.6896  114.7725   48.2168  C    0  0  2  0  0  0
   21.6433  113.8275   47.3992  C    0  0  1  0  0  0
   22.4423  113.0492   46.2985  C    0  0  2  0  0  0
   23.1422  114.2185   45.3727  C    0  0  1  0  0  0
   24.0271  115.1359   46.2712  C    0  0  1  0  0  0
   24.5606  116.4095   45.5263  C    0  0  0  0  0  0
   25.7633  113.5720   52.4439  C    0  0  2  0  0  0
   24.2597  113.1018   52.4810  C    0  0  1  0  0  0
   23.7161  113.1020   51.0152  C    0  0  2  0  0  0
   24.0092  114.3170   50.1747  C    0  0  1  0  0  0
   25.4479  114.7297   50.2567  C    0  0  1  0  0  0
   25.7707  116.1157   49.5655  C    0  0  0  0  0  0
   29.7008  109.8602   52.7944  C    0  0  2  0  0  0
   28.1870  109.3701   52.8750  C    0  0  1  0  0  0
   27.2319  110.3416   52.1079  C    0  0  2  0  0  0
   27.3374  111.7499   52.6731  C    0  0  1  0  0  0
   28.9184  112.1004   52.6542  C    0  0  1  0  0  0
   29.0588  113.5354   53.2138  C    0  0  0  0  0  0
   33.4693  108.7082   49.3228  C    0  0  2  0  0  0
   33.1673  107.8303   50.5217  C    0  0  1  0  0  0
   31.8147  108.1992   51.1483  C    0  0  2  0  0  0
   31.6523  109.6517   51.3511  C    0  0  1  0  0  0
   32.0877  110.5620   50.1463  C    0  0  1  0  0  0
   32.1277  112.0893   50.4461  C    0  0  0  0  0  0
   31.8140  107.7159   44.3419  C    0  0  2  0  0  0
   31.5993  106.5327   45.3179  C    0  0  1  0  0  0
   31.6326  106.9837   46.8448  C    0  0  2  0  0  0
   32.7408  107.9112   47.0998  C    0  0  1  0  0  0
   33.0202  108.9673   45.9850  C    0  0  1  0  0  0
   34.4387  109.5875   46.1894  C    0  0  0  0  0  0
   28.4238  110.8045   41.4224  C    0  0  1  0  0  0
   28.8043  109.3082   41.1032  C    0  0  1  0  0  0
   29.2904  108.6370   42.4494  C    0  0  2  0  0  0
   30.4758  109.4042   43.1055  C    0  0  1  0  0  0
   30.1353  110.9252   43.2235  C    0  0  1  0  0  0
   31.4788  111.7664   43.4903  C    0  0  0  0  0  0
   22.9589  112.9932   41.5555  O    0  0  0  0  0  0
   25.0918  111.1653   40.8312  O    0  0  0  0  0  0
   25.4919  111.6212   39.5373  C    0  0  0  0  0  0
   27.3975  111.1174   42.4543  O    0  0  0  0  0  0
   25.8581  114.3794   43.4349  O    0  0  0  0  0  0
   28.1848  114.6629   44.9975  O    0  0  0  0  0  0
   29.0328  114.7072   46.1628  C    0  0  0  0  0  0
   21.0271  112.9646   48.3592  O    0  0  0  0  0  0
   21.4554  112.3050   45.6078  O    0  0  0  0  0  0
   21.9552  111.0291   45.0919  C    0  0  0  0  0  0
   23.9044  113.5237   44.2638  O    0  0  0  0  0  0
   23.2409  115.7229   47.2931  O    0  0  0  0  0  0
   25.4321  117.1650   46.4074  O    0  0  0  0  0  0
   25.3845  118.5288   46.1348  C    0  0  0  0  0  0
   24.1531  111.9035   53.1818  O    0  0  0  0  0  0
   22.2816  113.0735   51.0871  O    0  0  0  0  0  0
   21.6467  111.8005   51.3435  C    0  0  0  0  0  0
   23.7037  113.9869   48.8457  O    0  0  0  0  0  0
   25.9151  114.7712   51.6767  O    0  0  0  0  0  0
   27.1823  116.3757   49.8586  O    0  0  0  0  0  0
   27.6730  117.6120   49.1909  C    0  0  0  0  0  0
   28.0655  108.0740   52.2686  O    0  0  0  0  0  0
   25.8546  109.9430   52.3530  O    0  0  0  0  0  0
   25.2405  108.9365   51.5235  C    0  0  0  0  0  0
   26.6279  112.6168   51.7856  O    0  0  0  0  0  0
   29.7817  111.1741   53.4140  O    0  0  0  0  0  0
   28.6281  113.5555   54.6150  O    0  0  0  0  0  0
   28.9889  114.9052   55.1690  C    0  0  0  0  0  0
   33.2013  106.4386   50.1085  O    0  0  0  0  0  0
   31.6629  107.4877   52.4000  O    0  0  0  0  0  0
   31.0998  106.1082   52.4562  C    0  0  0  0  0  0
   30.2557  109.9217   51.4817  O    0  0  0  0  0  0
   33.4041  110.1278   49.6888  O    0  0  0  0  0  0
   32.7000  112.9485   49.4238  O    0  0  0  0  0  0
   32.8497  114.2839   49.8844  C    0  0  0  0  0  0
   30.3853  105.7546   45.0571  O    0  0  0  0  0  0
   31.8089  105.8571   47.7220  O    0  0  0  0  0  0
   30.6489  105.1902   48.2566  C    0  0  0  0  0  0
   32.4104  108.5870   48.3556  O    0  0  0  0  0  0
   33.0691  108.4148   44.6912  O    0  0  0  0  0  0
   34.4367  110.9370   45.7433  O    0  0  0  0  0  0
   35.5540  111.7337   46.2294  C    0  0  0  0  0  0
   27.7305  108.6122   40.5457  O    0  0  0  0  0  0
   29.7271  107.2607   42.1911  O    0  0  0  0  0  0
   30.6602  107.0709   41.2110  C    0  0  0  0  0  0
   30.7835  108.7930   44.3632  O    0  0  0  0  0  0
   29.5437  111.4925   41.9825  O    0  0  0  0  0  0
   32.4951  111.5663   42.3830  O    0  0  0  0  0  0
   33.6874  112.1334   42.7684  C    0  0  0  0  0  0
   23.6430  116.9622   45.1048  H    0  0  0  0  0  0
   25.1320  116.0549   44.6315  H    0  0  0  0  0  0
   22.7083  113.4880   40.7008  H    0  0  0  0  0  0
   26.4157  112.1381   39.5339  H    0  0  0  0  0  0
   24.7083  112.1773   39.0395  H    0  0  0  0  0  0
   25.6323  110.7580   38.8751  H    0  0  0  0  0  0
   30.0386  114.3746   45.8452  H    0  0  0  0  0  0
   28.6706  114.0748   47.0047  H    0  0  0  0  0  0
   29.0453  115.7695   46.5111  H    0  0  0  0  0  0
   21.6136  112.9251   49.1177  H    0  0  0  0  0  0
   22.9272  111.1252   44.5064  H    0  0  0  0  0  0
   21.3077  110.5435   44.4005  H    0  0  0  0  0  0
   22.1210  110.3436   45.9186  H    0  0  0  0  0  0
   26.0812  119.1000   46.7848  H    0  0  0  0  0  0
   24.4291  118.8448   46.2289  H    0  0  0  0  0  0
   25.7083  118.7814   45.1249  H    0  0  0  0  0  0
   24.8832  111.2988   52.8282  H    0  0  0  0  0  0
   22.1869  110.9746   50.8565  H    0  0  0  0  0  0
   20.6111  111.9372   51.0204  H    0  0  0  0  0  0
   21.6190  111.5721   52.4358  H    0  0  0  0  0  0
   28.6735  117.9368   49.6124  H    0  0  0  0  0  0
   26.9709  118.4227   49.1818  H    0  0  0  0  0  0
   27.9080  117.4605   48.0932  H    0  0  0  0  0  0
   28.1982  108.1567   51.2558  H    0  0  0  0  0  0
   25.4087  109.1783   50.4593  H    0  0  0  0  0  0
   24.1701  108.9735   51.6873  H    0  0  0  0  0  0
   25.6084  107.9436   51.7418  H    0  0  0  0  0  0
   28.4262  115.6751   54.6352  H    0  0  0  0  0  0
   30.0343  115.0065   55.0233  H    0  0  0  0  0  0
   28.7481  114.9618   56.2252  H    0  0  0  0  0  0
   32.8351  106.4663   49.1807  H    0  0  0  0  0  0
   30.5051  105.9655   53.3454  H    0  0  0  0  0  0
   31.9428  105.3940   52.4021  H    0  0  0  0  0  0
   30.3632  105.9637   51.6087  H    0  0  0  0  0  0
   33.6263  114.3785   50.6678  H    0  0  0  0  0  0
   31.8634  114.6460   50.2883  H    0  0  0  0  0  0
   33.1580  114.9027   49.0409  H    0  0  0  0  0  0
   30.5740  104.8331   44.8242  H    0  0  0  0  0  0
   30.1980  105.6383   49.1631  H    0  0  0  0  0  0
   30.9018  104.1891   48.4716  H    0  0  0  0  0  0
   29.9371  105.0211   47.4896  H    0  0  0  0  0  0
   36.4589  111.2971   45.8393  H    0  0  0  0  0  0
   35.6978  111.8184   47.3272  H    0  0  0  0  0  0
   35.4752  112.7779   45.9040  H    0  0  0  0  0  0
   27.7542  108.6997   39.5046  H    0  0  0  0  0  0
   31.5595  107.6331   41.4411  H    0  0  0  0  0  0
   30.3144  107.1632   40.1682  H    0  0  0  0  0  0
   31.0785  106.0583   41.2756  H    0  0  0  0  0  0
   33.5109  113.1997   42.9992  H    0  0  0  0  0  0
   34.4124  112.0469   41.9450  H    0  0  0  0  0  0
   34.1185  111.5493   43.5897  H    0  0  0  0  0  0
   23.9247  115.1597   42.9964  H    0  0  0  0  0  0
   24.8339  113.8907   41.0991  H    0  0  0  0  0  0
   24.7396  111.5018   42.8572  H    0  0  0  0  0  0
   27.1039  112.9622   41.4516  H    0  0  0  0  0  0
   26.2308  112.5431   44.4125  H    0  0  0  0  0  0
   28.3313  112.6353   45.0991  H    0  0  0  0  0  0
   28.8705  113.3627   43.5649  H    0  0  0  0  0  0
   22.2302  115.3358   49.0371  H    0  0  0  0  0  0
   20.8583  114.4177   46.9105  H    0  0  0  0  0  0
   23.1904  112.4015   46.7722  H    0  0  0  0  0  0
   22.2592  114.7589   45.0098  H    0  0  0  0  0  0
   24.8573  114.5228   46.6432  H    0  0  0  0  0  0
   26.2193  113.9230   53.3767  H    0  0  0  0  0  0
   23.6655  113.8620   53.0029  H    0  0  0  0  0  0
   24.0003  112.1876   50.4799  H    0  0  0  0  0  0
   23.4182  115.1149   50.5545  H    0  0  0  0  0  0
   25.9502  113.8617   49.7913  H    0  0  0  0  0  0
   25.2131  116.9222   49.9696  H    0  0  0  0  0  0
   25.6014  116.0045   48.5104  H    0  0  0  0  0  0
   30.3604  109.2266   53.4174  H    0  0  0  0  0  0
   28.0180  109.2933   53.9672  H    0  0  0  0  0  0
   27.4741  110.3487   50.9975  H    0  0  0  0  0  0
   26.8735  111.6978   53.6973  H    0  0  0  0  0  0
   29.2373  112.0920   51.5765  H    0  0  0  0  0  0
   30.1602  113.7109   53.2275  H    0  0  0  0  0  0
   28.6716  114.3853   52.5628  H    0  0  0  0  0  0
   34.3874  108.5046   48.8018  H    0  0  0  0  0  0
   33.9001  107.9906   51.2431  H    0  0  0  0  0  0
   31.1039  107.9231   50.4041  H    0  0  0  0  0  0
   32.1387  109.8828   52.3109  H    0  0  0  0  0  0
   31.2832  110.4869   49.3516  H    0  0  0  0  0  0
   31.1265  112.4704   50.6502  H    0  0  0  0  0  0
   32.7108  112.2627   51.3661  H    0  0  0  0  0  0
   31.9199  107.2763   43.3045  H    0  0  0  0  0  0
   32.4606  105.8299   45.2327  H    0  0  0  0  0  0
   30.6893  107.4556   47.0824  H    0  0  0  0  0  0
   33.6647  107.3582   47.2482  H    0  0  0  0  0  0
   32.3015  109.7904   46.1194  H    0  0  0  0  0  0
   34.7667  109.5666   47.2997  H    0  0  0  0  0  0
   35.2818  109.0762   45.6909  H    0  0  0  0  0  0
   28.1666  111.2904   40.5139  H    0  0  0  0  0  0
   29.5867  109.3813   40.4085  H    0  0  0  0  0  0
   28.4844  108.4748   43.2020  H    0  0  0  0  0  0
   31.3454  109.3341   42.4540  H    0  0  0  0  0  0
   29.4837  111.1966   44.0817  H    0  0  0  0  0  0
   31.9223  111.4578   44.4731  H    0  0  0  0  0  0
   31.2520  112.8750   43.4777  H    0  0  0  0  0  0
  1  2  1  0  0  0
  1 47  1  0  0  0
  1 53  1  0  0  0
  1143  1  0  0  0
  2  3  1  0  0  0
  2 43  1  0  0  0
  2144  1  0  0  0
  3  4  1  0  0  0
  3 44  1  0  0  0
  3145  1  0  0  0
  4  5  1  0  0  0
  4 46  1  0  0  0
  4146  1  0  0  0
  5  6  1  0  0  0
  5 47  1  0  0  0
  5147  1  0  0  0
  6 48  1  0  0  0
  6148  1  0  0  0
  6149  1  0  0  0
  7  8  1  0  0  0
  7 54  1  0  0  0
  7 60  1  0  0  0
  7150  1  0  0  0
  8  9  1  0  0  0
  8 50  1  0  0  0
  8151  1  0  0  0
  9 10  1  0  0  0
  9 51  1  0  0  0
  9152  1  0  0  0
 10 11  1  0  0  0
 10 53  1  0  0  0
 10153  1  0  0  0
 11 12  1  0  0  0
 11 54  1  0  0  0
 11154  1  0  0  0
 12 55  1  0  0  0
 12 92  1  0  0  0
 12 93  1  0  0  0
 13 14  1  0  0  0
 13 61  1  0  0  0
 13 67  1  0  0  0
 13155  1  0  0  0
 14 15  1  0  0  0
 14 57  1  0  0  0
 14156  1  0  0  0
 15 16  1  0  0  0
 15 58  1  0  0  0
 15157  1  0  0  0
 16 17  1  0  0  0
 16 60  1  0  0  0
 16158  1  0  0  0
 17 18  1  0  0  0
 17 61  1  0  0  0
 17159  1  0  0  0
 18 62  1  0  0  0
 18160  1  0  0  0
 18161  1  0  0  0
 19 20  1  0  0  0
 19 68  1  0  0  0
 19 74  1  0  0  0
 19162  1  0  0  0
 20 21  1  0  0  0
 20 64  1  0  0  0
 20163  1  0  0  0
 21 22  1  0  0  0
 21 65  1  0  0  0
 21164  1  0  0  0
 22 23  1  0  0  0
 22 67  1  0  0  0
 22165  1  0  0  0
 23 24  1  0  0  0
 23 68  1  0  0  0
 23166  1  0  0  0
 24 69  1  0  0  0
 24167  1  0  0  0
 24168  1  0  0  0
 25 26  1  0  0  0
 25 75  1  0  0  0
 25 81  1  0  0  0
 25169  1  0  0  0
 26 27  1  0  0  0
 26 71  1  0  0  0
 26170  1  0  0  0
 27 28  1  0  0  0
 27 72  1  0  0  0
 27171  1  0  0  0
 28 29  1  0  0  0
 28 74  1  0  0  0
 28172  1  0  0  0
 29 30  1  0  0  0
 29 75  1  0  0  0
 29173  1  0  0  0
 30 76  1  0  0  0
 30174  1  0  0  0
 30175  1  0  0  0
 31 32  1  0  0  0
 31 82  1  0  0  0
 31 88  1  0  0  0
 31176  1  0  0  0
 32 33  1  0  0  0
 32 78  1  0  0  0
 32177  1  0  0  0
 33 34  1  0  0  0
 33 79  1  0  0  0
 33178  1  0  0  0
 34 35  1  0  0  0
 34 81  1  0  0  0
 34179  1  0  0  0
 35 36  1  0  0  0
 35 82  1  0  0  0
 35180  1  0  0  0
 36 83  1  0  0  0
 36181  1  0  0  0
 36182  1  0  0  0
 37 38  1  0  0  0
 37 46  1  0  0  0
 37 89  1  0  0  0
 37183  1  0  0  0
 38 39  1  0  0  0
 38 85  1  0  0  0
 38184  1  0  0  0
 39 40  1  0  0  0
 39 86  1  0  0  0
 39185  1  0  0  0
 40 41  1  0  0  0
 40 88  1  0  0  0
 40186  1  0  0  0
 41 42  1  0  0  0
 41 89  1  0  0  0
 41187  1  0  0  0
 42 90  1  0  0  0
 42188  1  0  0  0
 42189  1  0  0  0
 43 94  1  0  0  0
 44 45  1  0  0  0
 45 95  1  0  0  0
 45 96  1  0  0  0
 45 97  1  0  0  0
 48 49  1  0  0  0
 49 98  1  0  0  0
 49 99  1  0  0  0
 49100  1  0  0  0
 50101  1  0  0  0
 51 52  1  0  0  0
 52102  1  0  0  0
 52103  1  0  0  0
 52104  1  0  0  0
 55 56  1  0  0  0
 56105  1  0  0  0
 56106  1  0  0  0
 56107  1  0  0  0
 57108  1  0  0  0
 58 59  1  0  0  0
 59109  1  0  0  0
 59110  1  0  0  0
 59111  1  0  0  0
 62 63  1  0  0  0
 63112  1  0  0  0
 63113  1  0  0  0
 63114  1  0  0  0
 64115  1  0  0  0
 65 66  1  0  0  0
 66116  1  0  0  0
 66117  1  0  0  0
 66118  1  0  0  0
 69 70  1  0  0  0
 70119  1  0  0  0
 70120  1  0  0  0
 70121  1  0  0  0
 71122  1  0  0  0
 72 73  1  0  0  0
 73123  1  0  0  0
 73124  1  0  0  0
 73125  1  0  0  0
 76 77  1  0  0  0
 77126  1  0  0  0
 77127  1  0  0  0
 77128  1  0  0  0
 78129  1  0  0  0
 79 80  1  0  0  0
 80130  1  0  0  0
 80131  1  0  0  0
 80132  1  0  0  0
 83 84  1  0  0  0
 84133  1  0  0  0
 84134  1  0  0  0
 84135  1  0  0  0
 85136  1  0  0  0
 86 87  1  0  0  0
 87137  1  0  0  0
 87138  1  0  0  0
 87139  1  0  0  0
 90 91  1  0  0  0
 91140  1  0  0  0
 91141  1  0  0  0
 91142  1  0  0  0
M  END
> <s_m_entry_id>
14

> <s_m_Source_Path>
/home/emilio/Dropbox/sims/SAMPL9/work/receptor

> <s_m_Source_File>
bCDH26DM.mol2

> <i_m_Source_File_Index>
1

$$$$

