@<TRIPOS>MOLECULE
LIG
189 196
SMALL
USER_CHARGES
@<TRIPOS>ATOM
      1 C1         24.4265  114.1988   43.1577 aa             2 LIG     0.430935
      2 C2         24.3260  113.3072   41.8769 ab             1 LIG     0.207656
      3 C3         25.1946  112.0384   42.0155 ad             2 LIG     0.188798
      4 C4         26.7048  112.3737   42.2869 ae             1 LIG     0.195488
      5 C5         26.6735  113.1770   43.6344 af             1 LIG     0.195488
      6 C6         28.0843  113.3774   44.3299 ah             0 LIG     0.166225
      7 C7         22.6896  114.7725   48.2168 ai             2 LIG     0.430935
      8 C8         21.6433  113.8275   47.3992 aj             1 LIG     0.207656
      9 C9         22.4423  113.0492   46.2985 ak             2 LIG     0.188798
     10 C10        23.1422  114.2185   45.3727 an             1 LIG     0.195488
     11 C11        24.0271  115.1359   46.2712 ao             1 LIG     0.195488
     12 C12        24.5606  116.4095   45.5263 ap             0 LIG     0.166225
     13 C13        25.7633  113.5720   52.4439 aq             2 LIG     0.430935
     14 C14        24.2597  113.1018   52.4810 av             1 LIG     0.207656
     15 C15        23.7161  113.1020   51.0152 aw             2 LIG     0.188798
     16 C16        24.0092  114.3170   50.1747 ax             1 LIG     0.195488
     17 C17        25.4479  114.7297   50.2567 ay             1 LIG     0.195488
     18 C18        25.7707  116.1157   49.5655 az             0 LIG     0.166225
     19 C19        29.7008  109.8602   52.7944 bb             2 LIG     0.430935
     20 C20        28.1870  109.3701   52.8750 bc             1 LIG     0.207656
     21 C21        27.2319  110.3416   52.1079 bd             2 LIG     0.188798
     22 C22        27.3374  111.7499   52.6731 bf             1 LIG     0.195488
     23 C23        28.9184  112.1004   52.6542 bg             1 LIG     0.195488
     24 C24        29.0588  113.5354   53.2138 bh             0 LIG     0.166225
     25 C25        33.4693  108.7082   49.3228 bj             2 LIG     0.430935
     26 C26        33.1673  107.8303   50.5217 bk             1 LIG     0.207656
     27 C27        31.8147  108.1992   51.1483 bl             2 LIG     0.188798
     28 C28        31.6523  109.6517   51.3511 bm             1 LIG     0.195488
     29 C29        32.0877  110.5620   50.1463 bn             1 LIG     0.195488
     30 C30        32.1277  112.0893   50.4461 bo             0 LIG     0.166225
     31 C31        31.8140  107.7159   44.3419 bp             2 LIG     0.430935
     32 C32        31.5993  106.5327   45.3179 bq             1 LIG     0.207656
     33 C33        31.6326  106.9837   46.8448 bs             2 LIG     0.188798
     34 C34        32.7408  107.9112   47.0998 bt             1 LIG     0.195488
     35 C35        33.0202  108.9673   45.9850 bu             1 LIG     0.195488
     36 C36        34.4387  109.5875   46.1894 bv             0 LIG     0.166225
     37 C37        28.4238  110.8045   41.4224 bw             1 LIG     0.430935
     38 C38        28.8043  109.3082   41.1032 bx             1 LIG     0.207656
     39 C39        29.2904  108.6370   42.4494 by             2 LIG     0.188798
     40 C40        30.4758  109.4042   43.1055 bz             1 LIG     0.195488
     41 C41        30.1353  110.9252   43.2235 cb             1 LIG     0.195488
     42 C42        31.4788  111.7664   43.4903 ci             0 LIG     0.166225
     43 O1         22.9589  112.9932   41.5555 cj             0 LIG     -0.735959
     44 O2         25.0918  111.1653   40.8312 ck             0 LIG     -0.511627
     45 C43        25.4919  111.6212   39.5373 cm             0 LIG     0.074802
     46 O3         27.3975  111.1174   42.4543 cn             0 LIG     -0.542414
     47 O4         25.8581  114.3794   43.4349 ct             0 LIG     -0.542414
     48 O5         28.1848  114.6629   44.9975 cw             0 LIG     -0.511627
     49 C44        29.0328  114.7072   46.1628 da             0 LIG     0.074802
     50 O6         21.0271  112.9646   48.3592 db             0 LIG     -0.735959
     51 O7         21.4554  112.3050   45.6078 dc             0 LIG     -0.511627
     52 C45        21.9552  111.0291   45.0919 dd             0 LIG     0.074802
     53 O8         23.9044  113.5237   44.2638 de             0 LIG     -0.542414
     54 O9         23.2409  115.7229   47.2931 df             0 LIG     -0.542414
     55 O10        25.4321  117.1650   46.4074 dg             0 LIG     -0.511627
     56 C46        25.3845  118.5288   46.1348 dh             0 LIG     0.074802
     57 O11        24.1531  111.9035   53.1818 di             0 LIG     -0.735959
     58 O12        22.2816  113.0735   51.0871 dj             0 LIG     -0.511627
     59 C47        21.6467  111.8005   51.3435 dk             0 LIG     0.074802
     60 O13        23.7037  113.9869   48.8457 dl             0 LIG     -0.542414
     61 O14        25.9151  114.7712   51.6767 dm             0 LIG     -0.542414
     62 O15        27.1823  116.3757   49.8586 dn             0 LIG     -0.511627
     63 C48        27.6730  117.6120   49.1909 do             0 LIG     0.074802
     64 O16        28.0655  108.0740   52.2686 dp             0 LIG     -0.735959
     65 O17        25.8546  109.9430   52.3530 dq             0 LIG     -0.511627
     66 C49        25.2405  108.9365   51.5235 dr             0 LIG     0.074802
     67 O18        26.6279  112.6168   51.7856 ds             0 LIG     -0.542414
     68 O19        29.7817  111.1741   53.4140 dt             0 LIG     -0.542414
     69 O20        28.6281  113.5555   54.6150 dv             0 LIG     -0.511627
     70 C50        28.9889  114.9052   55.1690 dw             0 LIG     0.074802
     71 O21        33.2013  106.4386   50.1085 dx             0 LIG     -0.735959
     72 O22        31.6629  107.4877   52.4000 dz             0 LIG     -0.511627
     73 C51        31.0998  106.1082   52.4562 ea             0 LIG     0.074802
     74 O23        30.2557  109.9217   51.4817 eb             0 LIG     -0.542414
     75 O24        33.4041  110.1278   49.6888 ec             0 LIG     -0.542414
     76 O25        32.7000  112.9485   49.4238 ed             0 LIG     -0.511627
     77 C52        32.8497  114.2839   49.8844 ee             0 LIG     0.074802
     78 O26        30.3853  105.7546   45.0571 ef             0 LIG     -0.735959
     79 O27        31.8089  105.8571   47.7220 eg             0 LIG     -0.511627
     80 C53        30.6489  105.1902   48.2566 eh             0 LIG     0.074802
     81 O28        32.4104  108.5870   48.3556 ei             0 LIG     -0.542414
     82 O29        33.0691  108.4148   44.6912 ej             0 LIG     -0.542414
     83 O30        34.4367  110.9370   45.7433 ek             0 LIG     -0.511627
     84 C54        35.5540  111.7337   46.2294 el             0 LIG     0.074802
     85 O31        27.7305  108.6122   40.5457 em             0 LIG     -0.735959
     86 O32        29.7271  107.2607   42.1911 en             0 LIG     -0.511627
     87 C55        30.6602  107.0709   41.2110 eo             0 LIG     0.074802
     88 O33        30.7835  108.7930   44.3632 eq             0 LIG     -0.542414
     89 O34        29.5437  111.4925   41.9825 es             0 LIG     -0.542414
     90 O35        32.4951  111.5663   42.3830 et             0 LIG     -0.511627
     91 C56        33.6874  112.1334   42.7684 ev             0 LIG     0.074802
     92 H1         23.6430  116.9622   45.1048 ew             0 LIG     0.056965
     93 H2         25.1320  116.0549   44.6315 ex             0 LIG     0.056965
     94 H3         22.7083  113.4880   40.7008 ey             0 LIG     0.497876
     95 H4         26.4157  112.1381   39.5339 ez             0 LIG     0.066990
     96 H5         24.7083  112.1773   39.0395 fa             0 LIG     0.066990
     97 H6         25.6323  110.7580   38.8751 fb             0 LIG     0.066990
     98 H7         30.0386  114.3746   45.8452 fc             0 LIG     0.066990
     99 H8         28.6706  114.0748   47.0047 fd             0 LIG     0.066990
    100 H9         29.0453  115.7695   46.5111 ff             0 LIG     0.066990
    101 H10        21.6136  112.9251   49.1177 fg             0 LIG     0.497876
    102 H11        22.9272  111.1252   44.5064 fh             0 LIG     0.066990
    103 H12        21.3077  110.5435   44.4005 fi             0 LIG     0.066990
    104 H13        22.1210  110.3436   45.9186 fj             0 LIG     0.066990
    105 H14        26.0812  119.1000   46.7848 fk             0 LIG     0.066990
    106 H15        24.4291  118.8448   46.2289 fl             0 LIG     0.066990
    107 H16        25.7083  118.7814   45.1249 fm             0 LIG     0.066990
    108 H17        24.8832  111.2988   52.8282 fn             0 LIG     0.497876
    109 H18        22.1869  110.9746   50.8565 fo             0 LIG     0.066990
    110 H19        20.6111  111.9372   51.0204 fp             0 LIG     0.066990
    111 H20        21.6190  111.5721   52.4358 fq             0 LIG     0.066990
    112 H21        28.6735  117.9368   49.6124 fs             0 LIG     0.066990
    113 H22        26.9709  118.4227   49.1818 ft             0 LIG     0.066990
    114 H23        27.9080  117.4605   48.0932 fu             0 LIG     0.066990
    115 H24        28.1982  108.1567   51.2558 fv             0 LIG     0.497876
    116 H25        25.4087  109.1783   50.4593 fw             0 LIG     0.066990
    117 H26        24.1701  108.9735   51.6873 fx             0 LIG     0.066990
    118 H27        25.6084  107.9436   51.7418 fy             0 LIG     0.066990
    119 H28        28.4262  115.6751   54.6352 fz             0 LIG     0.066990
    120 H29        30.0343  115.0065   55.0233 gb             0 LIG     0.066990
    121 H30        28.7481  114.9618   56.2252 gc             0 LIG     0.066990
    122 H31        32.8351  106.4663   49.1807 gf             0 LIG     0.497876
    123 H32        30.5051  105.9655   53.3454 gg             0 LIG     0.066990
    124 H33        31.9428  105.3940   52.4021 gh             0 LIG     0.066990
    125 H34        30.3632  105.9637   51.6087 gi             0 LIG     0.066990
    126 H35        33.6263  114.3785   50.6678 gj             0 LIG     0.066990
    127 H36        31.8634  114.6460   50.2883 gk             0 LIG     0.066990
    128 H37        33.1580  114.9027   49.0409 gl             0 LIG     0.066990
    129 H38        30.5740  104.8331   44.8242 gm             0 LIG     0.497876
    130 H39        30.1980  105.6383   49.1631 gn             0 LIG     0.066990
    131 H40        30.9018  104.1891   48.4716 go             0 LIG     0.066990
    132 H41        29.9371  105.0211   47.4896 gp             0 LIG     0.066990
    133 H42        36.4589  111.2971   45.8393 gq             0 LIG     0.066990
    134 H43        35.6978  111.8184   47.3272 gr             0 LIG     0.066990
    135 H44        35.4752  112.7779   45.9040 gs             0 LIG     0.066990
    136 H45        27.7542  108.6997   39.5046 gt             0 LIG     0.497876
    137 H46        31.5595  107.6331   41.4411 gu             0 LIG     0.066990
    138 H47        30.3144  107.1632   40.1682 gv             0 LIG     0.066990
    139 H48        31.0785  106.0583   41.2756 gw             0 LIG     0.066990
    140 H49        33.5109  113.1997   42.9992 gx             0 LIG     0.066990
    141 H50        34.4124  112.0469   41.9450 gy             0 LIG     0.066990
    142 H51        34.1185  111.5493   43.5897 gz             0 LIG     0.066990
    143 H52        23.9247  115.1597   42.9964 hb             0 LIG     0.060700
    144 H53        24.8339  113.8907   41.0991 hd             0 LIG     0.055736
    145 H54        24.7396  111.5018   42.8572 hh             0 LIG     0.078119
    146 H55        27.1039  112.9622   41.4516 hi             0 LIG     0.050773
    147 H56        26.2308  112.5431   44.4125 hj             0 LIG     0.050773
    148 H57        28.3313  112.6353   45.0991 hk             0 LIG     0.056965
    149 H58        28.8705  113.3627   43.5649 hl             0 LIG     0.056965
    150 H59        22.2302  115.3358   49.0371 hm             0 LIG     0.060700
    151 H60        20.8583  114.4177   46.9105 hq             0 LIG     0.055736
    152 H61        23.1904  112.4015   46.7722 hr             0 LIG     0.078119
    153 H62        22.2592  114.7589   45.0098 ht             0 LIG     0.050773
    154 H63        24.8573  114.5228   46.6432 hu             0 LIG     0.050773
    155 H64        26.2193  113.9230   53.3767 hv             0 LIG     0.060700
    156 H65        23.6655  113.8620   53.0029 hy             0 LIG     0.055736
    157 H66        24.0003  112.1876   50.4799 hz             0 LIG     0.078119
    158 H67        23.4182  115.1149   50.5545 ia             0 LIG     0.050773
    159 H68        25.9502  113.8617   49.7913 ib             0 LIG     0.050773
    160 H69        25.2131  116.9222   49.9696 ic             0 LIG     0.056965
    161 H70        25.6014  116.0045   48.5104 id             0 LIG     0.056965
    162 H71        30.3604  109.2266   53.4174 ie             0 LIG     0.060700
    163 H72        28.0180  109.2933   53.9672 if             0 LIG     0.055736
    164 H73        27.4741  110.3487   50.9975 ig             0 LIG     0.078119
    165 H74        26.8735  111.6978   53.6973 ih             0 LIG     0.050773
    166 H75        29.2373  112.0920   51.5765 ii             0 LIG     0.050773
    167 H76        30.1602  113.7109   53.2275 ij             0 LIG     0.056965
    168 H77        28.6716  114.3853   52.5628 ik             0 LIG     0.056965
    169 H78        34.3874  108.5046   48.8018 il             0 LIG     0.060700
    170 H79        33.9001  107.9906   51.2431 im             0 LIG     0.055736
    171 H80        31.1039  107.9231   50.4041 io             0 LIG     0.078119
    172 H81        32.1387  109.8828   52.3109 ip             0 LIG     0.050773
    173 H82        31.2832  110.4869   49.3516 iq             0 LIG     0.050773
    174 H83        31.1265  112.4704   50.6502 is             0 LIG     0.056965
    175 H84        32.7108  112.2627   51.3661 it             0 LIG     0.056965
    176 H85        31.9199  107.2763   43.3045 iu             0 LIG     0.060700
    177 H86        32.4606  105.8299   45.2327 iv             0 LIG     0.055736
    178 H87        30.6893  107.4556   47.0824 iw             0 LIG     0.078119
    179 H88        33.6647  107.3582   47.2482 ix             0 LIG     0.050773
    180 H89        32.3015  109.7904   46.1194 iy             0 LIG     0.050773
    181 H90        34.7667  109.5666   47.2997 iz             0 LIG     0.056965
    182 H91        35.2818  109.0762   45.6909 ja             0 LIG     0.056965
    183 H92        28.1666  111.2904   40.5139 jb             0 LIG     0.060700
    184 H93        29.5867  109.3813   40.4085 jc             0 LIG     0.055736
    185 H94        28.4844  108.4748   43.2020 jd             0 LIG     0.078119
    186 H95        31.3454  109.3341   42.4540 je             0 LIG     0.050773
    187 H96        29.4837  111.1966   44.0817 jf             0 LIG     0.050773
    188 H97        31.9223  111.4578   44.4731 jg             0 LIG     0.056965
    189 H98        31.2520  112.8750   43.4777 jh             0 LIG     0.056965
@<TRIPOS>BOND
        1  1  2  1
        2  1  47  1
        3  1  53  1
        4  1  143  1
        5  2  3  1
        6  2  43  1
        7  2  144  1
        8  3  4  1
        9  3  44  1
        10  3  145  1
        11  4  5  1
        12  4  46  1
        13  4  146  1
        14  5  6  1
        15  5  47  1
        16  5  147  1
        17  6  48  1
        18  6  148  1
        19  6  149  1
        20  7  8  1
        21  7  54  1
        22  7  60  1
        23  7  150  1
        24  8  9  1
        25  8  50  1
        26  8  151  1
        27  9  10  1
        28  9  51  1
        29  9  152  1
        30  10  11  1
        31  10  53  1
        32  10  153  1
        33  11  12  1
        34  11  54  1
        35  11  154  1
        36  12  55  1
        37  12  92  1
        38  12  93  1
        39  13  14  1
        40  13  61  1
        41  13  67  1
        42  13  155  1
        43  14  15  1
        44  14  57  1
        45  14  156  1
        46  15  16  1
        47  15  58  1
        48  15  157  1
        49  16  17  1
        50  16  60  1
        51  16  158  1
        52  17  18  1
        53  17  61  1
        54  17  159  1
        55  18  62  1
        56  18  160  1
        57  18  161  1
        58  19  20  1
        59  19  68  1
        60  19  74  1
        61  19  162  1
        62  20  21  1
        63  20  64  1
        64  20  163  1
        65  21  22  1
        66  21  65  1
        67  21  164  1
        68  22  23  1
        69  22  67  1
        70  22  165  1
        71  23  24  1
        72  23  68  1
        73  23  166  1
        74  24  69  1
        75  24  167  1
        76  24  168  1
        77  25  26  1
        78  25  75  1
        79  25  81  1
        80  25  169  1
        81  26  27  1
        82  26  71  1
        83  26  170  1
        84  27  28  1
        85  27  72  1
        86  27  171  1
        87  28  29  1
        88  28  74  1
        89  28  172  1
        90  29  30  1
        91  29  75  1
        92  29  173  1
        93  30  76  1
        94  30  174  1
        95  30  175  1
        96  31  32  1
        97  31  82  1
        98  31  88  1
        99  31  176  1
        100  32  33  1
        101  32  78  1
        102  32  177  1
        103  33  34  1
        104  33  79  1
        105  33  178  1
        106  34  35  1
        107  34  81  1
        108  34  179  1
        109  35  36  1
        110  35  82  1
        111  35  180  1
        112  36  83  1
        113  36  181  1
        114  36  182  1
        115  37  38  1
        116  37  46  1
        117  37  89  1
        118  37  183  1
        119  38  39  1
        120  38  85  1
        121  38  184  1
        122  39  40  1
        123  39  86  1
        124  39  185  1
        125  40  41  1
        126  40  88  1
        127  40  186  1
        128  41  42  1
        129  41  89  1
        130  41  187  1
        131  42  90  1
        132  42  188  1
        133  42  189  1
        134  43  94  1
        135  44  45  1
        136  45  95  1
        137  45  96  1
        138  45  97  1
        139  48  49  1
        140  49  98  1
        141  49  99  1
        142  49  100  1
        143  50  101  1
        144  51  52  1
        145  52  102  1
        146  52  103  1
        147  52  104  1
        148  55  56  1
        149  56  105  1
        150  56  106  1
        151  56  107  1
        152  57  108  1
        153  58  59  1
        154  59  109  1
        155  59  110  1
        156  59  111  1
        157  62  63  1
        158  63  112  1
        159  63  113  1
        160  63  114  1
        161  64  115  1
        162  65  66  1
        163  66  116  1
        164  66  117  1
        165  66  118  1
        166  69  70  1
        167  70  119  1
        168  70  120  1
        169  70  121  1
        170  71  122  1
        171  72  73  1
        172  73  123  1
        173  73  124  1
        174  73  125  1
        175  76  77  1
        176  77  126  1
        177  77  127  1
        178  77  128  1
        179  78  129  1
        180  79  80  1
        181  80  130  1
        182  80  131  1
        183  80  132  1
        184  83  84  1
        185  84  133  1
        186  84  134  1
        187  84  135  1
        188  85  136  1
        189  86  87  1
        190  87  137  1
        191  87  138  1
        192  87  139  1
        193  90  91  1
        194  91  140  1
        195  91  141  1
        196  91  142  1
@<TRIPOS>SUBSTRUCTURE
       1 LIG             1 RESIDUE    0 **** ROOT      0

