@<TRIPOS>MOLECULE
LIG
189 196
SMALL
USER_CHARGES
@<TRIPOS>ATOM
      1 C1         28.0953  116.9582   44.9456 aa             2 LIG     0.430935
      2 C2         27.6107  116.1448   43.7884 ab             1 LIG     0.207656
      3 C3         28.4754  114.7959   43.6871 ad             2 LIG     0.188798
      4 C4         30.0339  115.1521   43.8000 ae             1 LIG     0.195488
      5 C5         30.4983  116.2473   44.8412 af             1 LIG     0.195488
      6 C6         31.9319  116.8244   44.6120 ah             0 LIG     0.166225
      7 C7         26.4042  116.8593   49.9914 ai             2 LIG     0.430935
      8 C8         25.3577  117.0279   48.8010 aj             1 LIG     0.207656
      9 C9         26.0182  116.3883   47.4733 ak             2 LIG     0.188798
     10 C10        27.4906  116.9607   47.2633 an             1 LIG     0.195488
     11 C11        28.3638  116.7770   48.4827 ao             1 LIG     0.195488
     12 C12        29.8051  117.3441   48.3347 ap             0 LIG     0.166225
     13 C13        26.2012  113.0169   53.8187 aq             2 LIG     0.430935
     14 C14        24.9123  113.8031   53.3325 av             1 LIG     0.207656
     15 C15        25.0622  114.3974   51.8687 aw             2 LIG     0.188798
     16 C16        26.4559  115.1443   51.7072 ax             1 LIG     0.195488
     17 C17        27.5635  114.2170   52.2033 ay             1 LIG     0.195488
     18 C18        28.9955  114.7165   52.0139 az             0 LIG     0.166225
     19 C19        28.1858  108.0852   53.6507 bb             2 LIG     0.430935
     20 C20        26.6446  108.0394   53.6292 bc             1 LIG     0.207656
     21 C21        26.1131  109.3405   53.0822 bd             2 LIG     0.188798
     22 C22        26.7066  110.5947   53.8674 bf             1 LIG     0.195488
     23 C23        28.2356  110.5560   53.9161 bg             1 LIG     0.195488
     24 C24        28.9001  111.5113   54.9545 bh             0 LIG     0.166225
     25 C25        30.3718  106.5384   48.9202 bj             2 LIG     0.430935
     26 C26        28.8215  106.4652   49.0232 bk             1 LIG     0.207656
     27 C27        28.2700  107.3599   50.1881 bl             2 LIG     0.188798
     28 C28        29.0123  107.2460   51.5460 bm             1 LIG     0.195488
     29 C29        30.5373  107.3606   51.2294 bn             1 LIG     0.195488
     30 C30        31.4303  107.1072   52.5369 bo             0 LIG     0.166225
     31 C31        33.6246  109.0680   45.6780 bp             2 LIG     0.430935
     32 C32        33.4216  107.5016   45.6379 bq             1 LIG     0.207656
     33 C33        32.1118  107.1226   46.3764 bs             2 LIG     0.188798
     34 C34        32.1276  107.7851   47.8621 bt             1 LIG     0.195488
     35 C35        32.6770  109.2581   47.8886 bu             1 LIG     0.195488
     36 C36        33.0265  109.7804   49.3358 bv             0 LIG     0.166225
     37 C37        32.0298  113.7252   43.2595 bw             1 LIG     0.430935
     38 C38        31.7807  112.4702   42.3790 bx             1 LIG     0.207656
     39 C39        31.7091  111.0919   43.1974 by             2 LIG     0.188798
     40 C40        32.7984  110.9745   44.3168 bz             1 LIG     0.195488
     41 C41        32.9329  112.3025   45.0432 cb             1 LIG     0.195488
     42 C42        34.0217  112.4459   46.0927 ci             0 LIG     0.166225
     43 O1         26.2418  115.8212   43.9272 cj             0 LIG     -0.735959
     44 O2         28.3230  114.0785   42.4380 ck             0 LIG     -0.511627
     45 C43        27.3663  113.0775   42.3616 cm             0 LIG     0.074802
     46 O3         30.8154  113.8995   44.0437 cn             0 LIG     -0.542414
     47 O4         29.5079  117.3477   44.8726 ct             0 LIG     -0.542414
     48 O5         31.9654  117.3894   43.3025 cw             0 LIG     -0.511627
     49 C44        33.2764  117.7850   43.0407 da             0 LIG     0.074802
     50 O6         23.9932  116.6359   49.0575 db             0 LIG     -0.735959
     51 O7         25.2630  116.5560   46.2963 dc             0 LIG     -0.511627
     52 C45        24.8241  117.9525   45.9007 dd             0 LIG     0.074802
     53 O8         28.0711  116.2070   46.1443 de             0 LIG     -0.542414
     54 O9         27.7217  117.3763   49.7066 df             0 LIG     -0.542414
     55 O10        29.7479  118.7170   48.2684 dg             0 LIG     -0.511627
     56 C46        31.0662  119.4475   48.3256 dh             0 LIG     0.074802
     57 O11        23.6018  113.1243   53.4269 di             0 LIG     -0.735959
     58 O12        23.9936  115.3401   51.3913 dj             0 LIG     -0.511627
     59 C47        23.6341  116.3825   52.3382 dk             0 LIG     0.074802
     60 O13        26.6181  115.4512   50.2947 dl             0 LIG     -0.542414
     61 O14        27.3429  113.8762   53.6107 dm             0 LIG     -0.542414
     62 O15        29.1754  115.9465   52.6360 dn             0 LIG     -0.511627
     63 C48        30.4732  116.5457   52.3576 do             0 LIG     0.074802
     64 O16        26.1604  106.8678   52.9305 dp             0 LIG     -0.735959
     65 O17        24.6575  109.3682   53.1068 dq             0 LIG     -0.511627
     66 C49        23.8629  109.2300   54.3207 dr             0 LIG     0.074802
     67 O18        26.3654  111.8110   53.0282 ds             0 LIG     -0.542414
     68 O19        28.6655  109.2431   54.3491 dt             0 LIG     -0.542414
     69 O20        28.0792  111.5673   56.0693 dv             0 LIG     -0.511627
     70 C50        28.2165  112.6155   57.0631 dw             0 LIG     0.074802
     71 O21        28.1579  106.7470   47.7688 dx             0 LIG     -0.735959
     72 O22        26.8850  107.0439   50.4359 dz             0 LIG     -0.511627
     73 C51        25.8483  107.8085   49.7180 ea             0 LIG     0.074802
     74 O23        28.5982  108.3426   52.2890 eb             0 LIG     -0.542414
     75 O24        30.9676  106.4883   50.1870 ec             0 LIG     -0.542414
     76 O25        31.3014  105.7765   53.0620 ed             0 LIG     -0.511627
     77 C52        32.5541  105.3608   53.7660 ee             0 LIG     0.074802
     78 O26        33.3890  106.9249   44.2714 ef             0 LIG     -0.735959
     79 O27        31.9482  105.7415   46.3509 eg             0 LIG     -0.511627
     80 C53        30.7774  105.2718   45.6101 eh             0 LIG     0.074802
     81 O28        30.7957  107.8113   48.3733 ei             0 LIG     -0.542414
     82 O29        33.8533  109.4242   47.0287 ej             0 LIG     -0.542414
     83 O30        34.1555  109.0228   49.8332 ek             0 LIG     -0.511627
     84 C54        34.4899  109.4781   51.1462 el             0 LIG     0.074802
     85 O31        30.6260  112.5832   41.4353 em             0 LIG     -0.735959
     86 O32        31.7857  109.9406   42.3511 en             0 LIG     -0.511627
     87 C55        30.7404  108.9647   42.6554 eo             0 LIG     0.074802
     88 O33        32.4822  109.8513   45.2080 eq             0 LIG     -0.542414
     89 O34        33.1317  113.3783   44.1432 es             0 LIG     -0.542414
     90 O35        34.1720  113.8475   46.5264 et             0 LIG     -0.511627
     91 C56        35.2160  114.1654   47.4805 ev             0 LIG     0.074802
     92 H1         30.1670  117.0580   47.4551 ew             0 LIG     0.056965
     93 H2         30.3922  116.9561   49.1858 ex             0 LIG     0.056965
     94 H3         25.9927  116.1289   44.8218 ey             0 LIG     0.497876
     95 H4         26.4104  113.4737   42.6187 ez             0 LIG     0.066990
     96 H5         27.6274  112.2515   43.0320 fa             0 LIG     0.066990
     97 H6         27.3990  112.5427   41.3702 fb             0 LIG     0.066990
     98 H7         33.3236  118.6890   43.6861 fc             0 LIG     0.066990
     99 H8         33.3857  118.0978   41.9689 fd             0 LIG     0.066990
    100 H9         33.9754  117.0058   43.3487 ff             0 LIG     0.066990
    101 H10        23.9726  116.0163   49.8266 fg             0 LIG     0.497876
    102 H11        24.4420  117.9875   44.8733 fh             0 LIG     0.066990
    103 H12        25.5988  118.7118   45.8397 fi             0 LIG     0.066990
    104 H13        24.0640  118.4179   46.4741 fj             0 LIG     0.066990
    105 H14        31.0033  120.5348   48.7303 fk             0 LIG     0.066990
    106 H15        31.3697  119.5812   47.2836 fl             0 LIG     0.066990
    107 H16        31.6948  118.9235   49.0841 fm             0 LIG     0.066990
    108 H17        23.5206  112.3403   52.7932 fn             0 LIG     0.497876
    109 H18        24.3902  116.5188   53.0910 fo             0 LIG     0.066990
    110 H19        22.6561  116.0538   52.7973 fp             0 LIG     0.066990
    111 H20        23.4735  117.2872   51.7606 fq             0 LIG     0.066990
    112 H21        30.4200  117.1630   51.4308 fs             0 LIG     0.066990
    113 H22        31.3097  115.8152   52.3560 ft             0 LIG     0.066990
    114 H23        30.6829  117.2757   53.1728 fu             0 LIG     0.066990
    115 H24        26.2860  107.0572   51.9264 fv             0 LIG     0.497876
    116 H25        22.7509  109.2796   54.1259 fw             0 LIG     0.066990
    117 H26        24.1667  109.9268   55.1073 fx             0 LIG     0.066990
    118 H27        24.1995  108.2809   54.6820 fy             0 LIG     0.066990
    119 H28        27.5586  112.3278   57.8944 fz             0 LIG     0.066990
    120 H29        27.8617  113.5113   56.4729 gb             0 LIG     0.066990
    121 H30        29.2485  112.6165   57.3841 gc             0 LIG     0.066990
    122 H31        27.4686  106.0464   47.6252 gf             0 LIG     0.497876
    123 H32        26.0295  107.5735   48.6442 gg             0 LIG     0.066990
    124 H33        25.9012  108.9041   49.7554 gh             0 LIG     0.066990
    125 H34        24.8581  107.5464   49.9699 gi             0 LIG     0.066990
    126 H35        32.9722  106.1586   54.4214 gj             0 LIG     0.066990
    127 H36        33.2309  105.2260   52.9723 gk             0 LIG     0.066990
    128 H37        32.4588  104.4383   54.3364 gl             0 LIG     0.066990
    129 H38        33.5742  105.9083   44.3844 gm             0 LIG     0.497876
    130 H39        30.7444  105.8477   44.6655 gn             0 LIG     0.066990
    131 H40        29.8370  105.4057   46.1516 go             0 LIG     0.066990
    132 H41        30.8070  104.2031   45.3701 gp             0 LIG     0.066990
    133 H42        35.3899  108.9842   51.5738 gq             0 LIG     0.066990
    134 H43        33.6482  109.3410   51.7905 gr             0 LIG     0.066990
    135 H44        34.6807  110.5310   51.1191 gs             0 LIG     0.066990
    136 H45        29.8971  112.8811   41.9575 gt             0 LIG     0.497876
    137 H46        30.7945  108.1480   41.9310 gu             0 LIG     0.066990
    138 H47        29.7209  109.3870   42.5637 gv             0 LIG     0.066990
    139 H48        30.8689  108.4838   43.6604 gw             0 LIG     0.066990
    140 H49        34.7635  113.8569   48.4515 gx             0 LIG     0.066990
    141 H50        35.4214  115.2379   47.6033 gy             0 LIG     0.066990
    142 H51        36.0947  113.5311   47.4132 gz             0 LIG     0.066990
    143 H52        27.4028  117.8023   45.0407 hb             0 LIG     0.060700
    144 H53        27.7789  116.6348   42.8215 hd             0 LIG     0.055736
    145 H54        28.3273  114.1818   44.5840 hh             0 LIG     0.078119
    146 H55        30.2895  115.5809   42.8231 hi             0 LIG     0.050773
    147 H56        30.5409  115.7902   45.8375 hj             0 LIG     0.050773
    148 H57        32.1491  117.6071   45.3493 hk             0 LIG     0.056965
    149 H58        32.6843  116.0261   44.6082 hl             0 LIG     0.056965
    150 H59        25.9492  117.4065   50.8249 hm             0 LIG     0.060700
    151 H60        25.2830  118.1036   48.5990 hq             0 LIG     0.055736
    152 H61        25.9782  115.2992   47.5984 hr             0 LIG     0.078119
    153 H62        27.3787  118.0270   47.0311 ht             0 LIG     0.050773
    154 H63        28.4977  115.6956   48.6096 hu             0 LIG     0.050773
    155 H64        26.0256  112.8361   54.8854 hv             0 LIG     0.060700
    156 H65        24.8882  114.6563   54.0216 hy             0 LIG     0.055736
    157 H66        25.0541  113.5542   51.1669 hz             0 LIG     0.078119
    158 H67        26.4581  116.1060   52.2826 ia             0 LIG     0.050773
    159 H68        27.4894  113.2961   51.5962 ib             0 LIG     0.050773
    160 H69        29.3184  114.8360   50.9538 ic             0 LIG     0.056965
    161 H70        29.5825  113.9794   52.5200 id             0 LIG     0.056965
    162 H71        28.6054  107.1937   54.0918 ie             0 LIG     0.060700
    163 H72        26.3311  107.9753   54.7574 if             0 LIG     0.055736
    164 H73        26.4662  109.3882   51.9994 ig             0 LIG     0.078119
    165 H74        26.3266  110.6905   54.9380 ih             0 LIG     0.050773
    166 H75        28.5403  110.6796   52.8854 ii             0 LIG     0.050773
    167 H76        29.9217  111.2012   55.1809 ij             0 LIG     0.056965
    168 H77        29.0075  112.5397   54.5189 ik             0 LIG     0.056965
    169 H78        30.7159  105.7006   48.2188 il             0 LIG     0.060700
    170 H79        28.6189  105.4501   49.3451 im             0 LIG     0.055736
    171 H80        28.3426  108.4148   49.8158 io             0 LIG     0.078119
    172 H81        28.7363  106.2948   52.0142 ip             0 LIG     0.050773
    173 H82        30.6898  108.4523   50.9888 iq             0 LIG     0.050773
    174 H83        32.4681  107.2572   52.3740 is             0 LIG     0.056965
    175 H84        31.1759  107.7568   53.3600 it             0 LIG     0.056965
    176 H85        34.5432  109.3312   45.0261 iu             0 LIG     0.060700
    177 H86        34.2806  107.0191   46.2096 iv             0 LIG     0.055736
    178 H87        31.2762  107.6327   45.9447 iw             0 LIG     0.078119
    179 H88        32.7784  107.1753   48.4913 ix             0 LIG     0.050773
    180 H89        31.8436  109.8195   47.5188 iy             0 LIG     0.050773
    181 H90        33.3871  110.7904   49.2359 iz             0 LIG     0.056965
    182 H91        32.1933  109.7547   50.0536 ja             0 LIG     0.056965
    183 H92        32.3080  114.4778   42.5000 jb             0 LIG     0.060700
    184 H93        32.7889  112.2841   41.9218 jc             0 LIG     0.055736
    185 H94        30.7282  111.1278   43.6670 jd             0 LIG     0.078119
    186 H95        33.7550  110.7894   43.7706 je             0 LIG     0.050773
    187 H96        31.9705  112.4599   45.5089 jf             0 LIG     0.050773
    188 H97        34.9611  112.0488   45.7040 jg             0 LIG     0.056965
    189 H98        33.7253  111.8174   46.9213 jh             0 LIG     0.056965
@<TRIPOS>BOND
        1  1  2  1
        2  1  47  1
        3  1  53  1
        4  1  143  1
        5  2  3  1
        6  2  43  1
        7  2  144  1
        8  3  4  1
        9  3  44  1
        10  3  145  1
        11  4  5  1
        12  4  46  1
        13  4  146  1
        14  5  6  1
        15  5  47  1
        16  5  147  1
        17  6  48  1
        18  6  148  1
        19  6  149  1
        20  7  8  1
        21  7  54  1
        22  7  60  1
        23  7  150  1
        24  8  9  1
        25  8  50  1
        26  8  151  1
        27  9  10  1
        28  9  51  1
        29  9  152  1
        30  10  11  1
        31  10  53  1
        32  10  153  1
        33  11  12  1
        34  11  54  1
        35  11  154  1
        36  12  55  1
        37  12  92  1
        38  12  93  1
        39  13  14  1
        40  13  61  1
        41  13  67  1
        42  13  155  1
        43  14  15  1
        44  14  57  1
        45  14  156  1
        46  15  16  1
        47  15  58  1
        48  15  157  1
        49  16  17  1
        50  16  60  1
        51  16  158  1
        52  17  18  1
        53  17  61  1
        54  17  159  1
        55  18  62  1
        56  18  160  1
        57  18  161  1
        58  19  20  1
        59  19  68  1
        60  19  74  1
        61  19  162  1
        62  20  21  1
        63  20  64  1
        64  20  163  1
        65  21  22  1
        66  21  65  1
        67  21  164  1
        68  22  23  1
        69  22  67  1
        70  22  165  1
        71  23  24  1
        72  23  68  1
        73  23  166  1
        74  24  69  1
        75  24  167  1
        76  24  168  1
        77  25  26  1
        78  25  75  1
        79  25  81  1
        80  25  169  1
        81  26  27  1
        82  26  71  1
        83  26  170  1
        84  27  28  1
        85  27  72  1
        86  27  171  1
        87  28  29  1
        88  28  74  1
        89  28  172  1
        90  29  30  1
        91  29  75  1
        92  29  173  1
        93  30  76  1
        94  30  174  1
        95  30  175  1
        96  31  32  1
        97  31  82  1
        98  31  88  1
        99  31  176  1
        100  32  33  1
        101  32  78  1
        102  32  177  1
        103  33  34  1
        104  33  79  1
        105  33  178  1
        106  34  35  1
        107  34  81  1
        108  34  179  1
        109  35  36  1
        110  35  82  1
        111  35  180  1
        112  36  83  1
        113  36  181  1
        114  36  182  1
        115  37  38  1
        116  37  46  1
        117  37  89  1
        118  37  183  1
        119  38  39  1
        120  38  85  1
        121  38  184  1
        122  39  40  1
        123  39  86  1
        124  39  185  1
        125  40  41  1
        126  40  88  1
        127  40  186  1
        128  41  42  1
        129  41  89  1
        130  41  187  1
        131  42  90  1
        132  42  188  1
        133  42  189  1
        134  43  94  1
        135  44  45  1
        136  45  95  1
        137  45  96  1
        138  45  97  1
        139  48  49  1
        140  49  98  1
        141  49  99  1
        142  49  100  1
        143  50  101  1
        144  51  52  1
        145  52  102  1
        146  52  103  1
        147  52  104  1
        148  55  56  1
        149  56  105  1
        150  56  106  1
        151  56  107  1
        152  57  108  1
        153  58  59  1
        154  59  109  1
        155  59  110  1
        156  59  111  1
        157  62  63  1
        158  63  112  1
        159  63  113  1
        160  63  114  1
        161  64  115  1
        162  65  66  1
        163  66  116  1
        164  66  117  1
        165  66  118  1
        166  69  70  1
        167  70  119  1
        168  70  120  1
        169  70  121  1
        170  71  122  1
        171  72  73  1
        172  73  123  1
        173  73  124  1
        174  73  125  1
        175  76  77  1
        176  77  126  1
        177  77  127  1
        178  77  128  1
        179  78  129  1
        180  79  80  1
        181  80  130  1
        182  80  131  1
        183  80  132  1
        184  83  84  1
        185  84  133  1
        186  84  134  1
        187  84  135  1
        188  85  136  1
        189  86  87  1
        190  87  137  1
        191  87  138  1
        192  87  139  1
        193  90  91  1
        194  91  140  1
        195  91  141  1
        196  91  142  1
@<TRIPOS>SUBSTRUCTURE
       1 LIG             1 RESIDUE    0 **** ROOT      0

