bCDH26DM
                    3D

189196  0  0  1  0            999 V2000
   28.0953  116.9582   44.9456  C    0  0  2  0  0  0
   27.6107  116.1448   43.7884  C    0  0  1  0  0  0
   28.4754  114.7959   43.6871  C    0  0  2  0  0  0
   30.0339  115.1521   43.8000  C    0  0  1  0  0  0
   30.4983  116.2473   44.8412  C    0  0  1  0  0  0
   31.9319  116.8244   44.6120  C    0  0  0  0  0  0
   26.4042  116.8593   49.9914  C    0  0  2  0  0  0
   25.3577  117.0279   48.8010  C    0  0  1  0  0  0
   26.0182  116.3883   47.4733  C    0  0  2  0  0  0
   27.4906  116.9607   47.2633  C    0  0  1  0  0  0
   28.3638  116.7770   48.4827  C    0  0  1  0  0  0
   29.8051  117.3441   48.3347  C    0  0  0  0  0  0
   26.2012  113.0169   53.8187  C    0  0  2  0  0  0
   24.9123  113.8031   53.3325  C    0  0  1  0  0  0
   25.0622  114.3974   51.8687  C    0  0  2  0  0  0
   26.4559  115.1443   51.7072  C    0  0  1  0  0  0
   27.5635  114.2170   52.2033  C    0  0  1  0  0  0
   28.9955  114.7165   52.0139  C    0  0  0  0  0  0
   28.1858  108.0852   53.6507  C    0  0  2  0  0  0
   26.6446  108.0394   53.6292  C    0  0  1  0  0  0
   26.1131  109.3405   53.0822  C    0  0  2  0  0  0
   26.7066  110.5947   53.8674  C    0  0  1  0  0  0
   28.2356  110.5560   53.9161  C    0  0  1  0  0  0
   28.9001  111.5113   54.9545  C    0  0  0  0  0  0
   30.3718  106.5384   48.9202  C    0  0  2  0  0  0
   28.8215  106.4652   49.0232  C    0  0  1  0  0  0
   28.2700  107.3599   50.1881  C    0  0  2  0  0  0
   29.0123  107.2460   51.5460  C    0  0  1  0  0  0
   30.5373  107.3606   51.2294  C    0  0  1  0  0  0
   31.4303  107.1072   52.5369  C    0  0  0  0  0  0
   33.6246  109.0680   45.6780  C    0  0  2  0  0  0
   33.4216  107.5016   45.6379  C    0  0  1  0  0  0
   32.1118  107.1226   46.3764  C    0  0  2  0  0  0
   32.1276  107.7851   47.8621  C    0  0  1  0  0  0
   32.6770  109.2581   47.8886  C    0  0  1  0  0  0
   33.0265  109.7804   49.3358  C    0  0  0  0  0  0
   32.0298  113.7252   43.2595  C    0  0  1  0  0  0
   31.7807  112.4702   42.3790  C    0  0  1  0  0  0
   31.7091  111.0919   43.1974  C    0  0  2  0  0  0
   32.7984  110.9745   44.3168  C    0  0  1  0  0  0
   32.9329  112.3025   45.0432  C    0  0  1  0  0  0
   34.0217  112.4459   46.0927  C    0  0  0  0  0  0
   26.2418  115.8212   43.9272  O    0  0  0  0  0  0
   28.3230  114.0785   42.4380  O    0  0  0  0  0  0
   27.3663  113.0775   42.3616  C    0  0  0  0  0  0
   30.8154  113.8995   44.0437  O    0  0  0  0  0  0
   29.5079  117.3477   44.8726  O    0  0  0  0  0  0
   31.9654  117.3894   43.3025  O    0  0  0  0  0  0
   33.2764  117.7850   43.0407  C    0  0  0  0  0  0
   23.9932  116.6359   49.0575  O    0  0  0  0  0  0
   25.2630  116.5560   46.2963  O    0  0  0  0  0  0
   24.8241  117.9525   45.9007  C    0  0  0  0  0  0
   28.0711  116.2070   46.1443  O    0  0  0  0  0  0
   27.7217  117.3763   49.7066  O    0  0  0  0  0  0
   29.7479  118.7170   48.2684  O    0  0  0  0  0  0
   31.0662  119.4475   48.3256  C    0  0  0  0  0  0
   23.6018  113.1243   53.4269  O    0  0  0  0  0  0
   23.9936  115.3401   51.3913  O    0  0  0  0  0  0
   23.6341  116.3825   52.3382  C    0  0  0  0  0  0
   26.6181  115.4512   50.2947  O    0  0  0  0  0  0
   27.3429  113.8762   53.6107  O    0  0  0  0  0  0
   29.1754  115.9465   52.6360  O    0  0  0  0  0  0
   30.4732  116.5457   52.3576  C    0  0  0  0  0  0
   26.1604  106.8678   52.9305  O    0  0  0  0  0  0
   24.6575  109.3682   53.1068  O    0  0  0  0  0  0
   23.8629  109.2300   54.3207  C    0  0  0  0  0  0
   26.3654  111.8110   53.0282  O    0  0  0  0  0  0
   28.6655  109.2431   54.3491  O    0  0  0  0  0  0
   28.0792  111.5673   56.0693  O    0  0  0  0  0  0
   28.2165  112.6155   57.0631  C    0  0  0  0  0  0
   28.1579  106.7470   47.7688  O    0  0  0  0  0  0
   26.8850  107.0439   50.4359  O    0  0  0  0  0  0
   25.8483  107.8085   49.7180  C    0  0  0  0  0  0
   28.5982  108.3426   52.2890  O    0  0  0  0  0  0
   30.9676  106.4883   50.1870  O    0  0  0  0  0  0
   31.3014  105.7765   53.0620  O    0  0  0  0  0  0
   32.5541  105.3608   53.7660  C    0  0  0  0  0  0
   33.3890  106.9249   44.2714  O    0  0  0  0  0  0
   31.9482  105.7415   46.3509  O    0  0  0  0  0  0
   30.7774  105.2718   45.6101  C    0  0  0  0  0  0
   30.7957  107.8113   48.3733  O    0  0  0  0  0  0
   33.8533  109.4242   47.0287  O    0  0  0  0  0  0
   34.1555  109.0228   49.8332  O    0  0  0  0  0  0
   34.4899  109.4781   51.1462  C    0  0  0  0  0  0
   30.6260  112.5832   41.4353  O    0  0  0  0  0  0
   31.7857  109.9406   42.3511  O    0  0  0  0  0  0
   30.7404  108.9647   42.6554  C    0  0  0  0  0  0
   32.4822  109.8513   45.2080  O    0  0  0  0  0  0
   33.1317  113.3783   44.1432  O    0  0  0  0  0  0
   34.1720  113.8475   46.5264  O    0  0  0  0  0  0
   35.2160  114.1654   47.4805  C    0  0  0  0  0  0
   30.1670  117.0580   47.4551  H    0  0  0  0  0  0
   30.3922  116.9561   49.1858  H    0  0  0  0  0  0
   25.9927  116.1289   44.8218  H    0  0  0  0  0  0
   26.4104  113.4737   42.6187  H    0  0  0  0  0  0
   27.6274  112.2515   43.0320  H    0  0  0  0  0  0
   27.3990  112.5427   41.3702  H    0  0  0  0  0  0
   33.3236  118.6890   43.6861  H    0  0  0  0  0  0
   33.3857  118.0978   41.9689  H    0  0  0  0  0  0
   33.9754  117.0058   43.3487  H    0  0  0  0  0  0
   23.9726  116.0163   49.8266  H    0  0  0  0  0  0
   24.4420  117.9875   44.8733  H    0  0  0  0  0  0
   25.5988  118.7118   45.8397  H    0  0  0  0  0  0
   24.0640  118.4179   46.4741  H    0  0  0  0  0  0
   31.0033  120.5348   48.7303  H    0  0  0  0  0  0
   31.3697  119.5812   47.2836  H    0  0  0  0  0  0
   31.6948  118.9235   49.0841  H    0  0  0  0  0  0
   23.5206  112.3403   52.7932  H    0  0  0  0  0  0
   24.3902  116.5188   53.0910  H    0  0  0  0  0  0
   22.6561  116.0538   52.7973  H    0  0  0  0  0  0
   23.4735  117.2872   51.7606  H    0  0  0  0  0  0
   30.4200  117.1630   51.4308  H    0  0  0  0  0  0
   31.3097  115.8152   52.3560  H    0  0  0  0  0  0
   30.6829  117.2757   53.1728  H    0  0  0  0  0  0
   26.2860  107.0572   51.9264  H    0  0  0  0  0  0
   22.7509  109.2796   54.1259  H    0  0  0  0  0  0
   24.1667  109.9268   55.1073  H    0  0  0  0  0  0
   24.1995  108.2809   54.6820  H    0  0  0  0  0  0
   27.5586  112.3278   57.8944  H    0  0  0  0  0  0
   27.8617  113.5113   56.4729  H    0  0  0  0  0  0
   29.2485  112.6165   57.3841  H    0  0  0  0  0  0
   27.4686  106.0464   47.6252  H    0  0  0  0  0  0
   26.0295  107.5735   48.6442  H    0  0  0  0  0  0
   25.9012  108.9041   49.7554  H    0  0  0  0  0  0
   24.8581  107.5464   49.9699  H    0  0  0  0  0  0
   32.9722  106.1586   54.4214  H    0  0  0  0  0  0
   33.2309  105.2260   52.9723  H    0  0  0  0  0  0
   32.4588  104.4383   54.3364  H    0  0  0  0  0  0
   33.5742  105.9083   44.3844  H    0  0  0  0  0  0
   30.7444  105.8477   44.6655  H    0  0  0  0  0  0
   29.8370  105.4057   46.1516  H    0  0  0  0  0  0
   30.8070  104.2031   45.3701  H    0  0  0  0  0  0
   35.3899  108.9842   51.5738  H    0  0  0  0  0  0
   33.6482  109.3410   51.7905  H    0  0  0  0  0  0
   34.6807  110.5310   51.1191  H    0  0  0  0  0  0
   29.8971  112.8811   41.9575  H    0  0  0  0  0  0
   30.7945  108.1480   41.9310  H    0  0  0  0  0  0
   29.7209  109.3870   42.5637  H    0  0  0  0  0  0
   30.8689  108.4838   43.6604  H    0  0  0  0  0  0
   34.7635  113.8569   48.4515  H    0  0  0  0  0  0
   35.4214  115.2379   47.6033  H    0  0  0  0  0  0
   36.0947  113.5311   47.4132  H    0  0  0  0  0  0
   27.4028  117.8023   45.0407  H    0  0  0  0  0  0
   27.7789  116.6348   42.8215  H    0  0  0  0  0  0
   28.3273  114.1818   44.5840  H    0  0  0  0  0  0
   30.2895  115.5809   42.8231  H    0  0  0  0  0  0
   30.5409  115.7902   45.8375  H    0  0  0  0  0  0
   32.1491  117.6071   45.3493  H    0  0  0  0  0  0
   32.6843  116.0261   44.6082  H    0  0  0  0  0  0
   25.9492  117.4065   50.8249  H    0  0  0  0  0  0
   25.2830  118.1036   48.5990  H    0  0  0  0  0  0
   25.9782  115.2992   47.5984  H    0  0  0  0  0  0
   27.3787  118.0270   47.0311  H    0  0  0  0  0  0
   28.4977  115.6956   48.6096  H    0  0  0  0  0  0
   26.0256  112.8361   54.8854  H    0  0  0  0  0  0
   24.8882  114.6563   54.0216  H    0  0  0  0  0  0
   25.0541  113.5542   51.1669  H    0  0  0  0  0  0
   26.4581  116.1060   52.2826  H    0  0  0  0  0  0
   27.4894  113.2961   51.5962  H    0  0  0  0  0  0
   29.3184  114.8360   50.9538  H    0  0  0  0  0  0
   29.5825  113.9794   52.5200  H    0  0  0  0  0  0
   28.6054  107.1937   54.0918  H    0  0  0  0  0  0
   26.3311  107.9753   54.7574  H    0  0  0  0  0  0
   26.4662  109.3882   51.9994  H    0  0  0  0  0  0
   26.3266  110.6905   54.9380  H    0  0  0  0  0  0
   28.5403  110.6796   52.8854  H    0  0  0  0  0  0
   29.9217  111.2012   55.1809  H    0  0  0  0  0  0
   29.0075  112.5397   54.5189  H    0  0  0  0  0  0
   30.7159  105.7006   48.2188  H    0  0  0  0  0  0
   28.6189  105.4501   49.3451  H    0  0  0  0  0  0
   28.3426  108.4148   49.8158  H    0  0  0  0  0  0
   28.7363  106.2948   52.0142  H    0  0  0  0  0  0
   30.6898  108.4523   50.9888  H    0  0  0  0  0  0
   32.4681  107.2572   52.3740  H    0  0  0  0  0  0
   31.1759  107.7568   53.3600  H    0  0  0  0  0  0
   34.5432  109.3312   45.0261  H    0  0  0  0  0  0
   34.2806  107.0191   46.2096  H    0  0  0  0  0  0
   31.2762  107.6327   45.9447  H    0  0  0  0  0  0
   32.7784  107.1753   48.4913  H    0  0  0  0  0  0
   31.8436  109.8195   47.5188  H    0  0  0  0  0  0
   33.3871  110.7904   49.2359  H    0  0  0  0  0  0
   32.1933  109.7547   50.0536  H    0  0  0  0  0  0
   32.3080  114.4778   42.5000  H    0  0  0  0  0  0
   32.7889  112.2841   41.9218  H    0  0  0  0  0  0
   30.7282  111.1278   43.6670  H    0  0  0  0  0  0
   33.7550  110.7894   43.7706  H    0  0  0  0  0  0
   31.9705  112.4599   45.5089  H    0  0  0  0  0  0
   34.9611  112.0488   45.7040  H    0  0  0  0  0  0
   33.7253  111.8174   46.9213  H    0  0  0  0  0  0
  1  2  1  0  0  0
  1 47  1  0  0  0
  1 53  1  0  0  0
  1143  1  0  0  0
  2  3  1  0  0  0
  2 43  1  0  0  0
  2144  1  0  0  0
  3  4  1  0  0  0
  3 44  1  0  0  0
  3145  1  0  0  0
  4  5  1  0  0  0
  4 46  1  0  0  0
  4146  1  0  0  0
  5  6  1  0  0  0
  5 47  1  0  0  0
  5147  1  0  0  0
  6 48  1  0  0  0
  6148  1  0  0  0
  6149  1  0  0  0
  7  8  1  0  0  0
  7 54  1  0  0  0
  7 60  1  0  0  0
  7150  1  0  0  0
  8  9  1  0  0  0
  8 50  1  0  0  0
  8151  1  0  0  0
  9 10  1  0  0  0
  9 51  1  0  0  0
  9152  1  0  0  0
 10 11  1  0  0  0
 10 53  1  0  0  0
 10153  1  0  0  0
 11 12  1  0  0  0
 11 54  1  0  0  0
 11154  1  0  0  0
 12 55  1  0  0  0
 12 92  1  0  0  0
 12 93  1  0  0  0
 13 14  1  0  0  0
 13 61  1  0  0  0
 13 67  1  0  0  0
 13155  1  0  0  0
 14 15  1  0  0  0
 14 57  1  0  0  0
 14156  1  0  0  0
 15 16  1  0  0  0
 15 58  1  0  0  0
 15157  1  0  0  0
 16 17  1  0  0  0
 16 60  1  0  0  0
 16158  1  0  0  0
 17 18  1  0  0  0
 17 61  1  0  0  0
 17159  1  0  0  0
 18 62  1  0  0  0
 18160  1  0  0  0
 18161  1  0  0  0
 19 20  1  0  0  0
 19 68  1  0  0  0
 19 74  1  0  0  0
 19162  1  0  0  0
 20 21  1  0  0  0
 20 64  1  0  0  0
 20163  1  0  0  0
 21 22  1  0  0  0
 21 65  1  0  0  0
 21164  1  0  0  0
 22 23  1  0  0  0
 22 67  1  0  0  0
 22165  1  0  0  0
 23 24  1  0  0  0
 23 68  1  0  0  0
 23166  1  0  0  0
 24 69  1  0  0  0
 24167  1  0  0  0
 24168  1  0  0  0
 25 26  1  0  0  0
 25 75  1  0  0  0
 25 81  1  0  0  0
 25169  1  0  0  0
 26 27  1  0  0  0
 26 71  1  0  0  0
 26170  1  0  0  0
 27 28  1  0  0  0
 27 72  1  0  0  0
 27171  1  0  0  0
 28 29  1  0  0  0
 28 74  1  0  0  0
 28172  1  0  0  0
 29 30  1  0  0  0
 29 75  1  0  0  0
 29173  1  0  0  0
 30 76  1  0  0  0
 30174  1  0  0  0
 30175  1  0  0  0
 31 32  1  0  0  0
 31 82  1  0  0  0
 31 88  1  0  0  0
 31176  1  0  0  0
 32 33  1  0  0  0
 32 78  1  0  0  0
 32177  1  0  0  0
 33 34  1  0  0  0
 33 79  1  0  0  0
 33178  1  0  0  0
 34 35  1  0  0  0
 34 81  1  0  0  0
 34179  1  0  0  0
 35 36  1  0  0  0
 35 82  1  0  0  0
 35180  1  0  0  0
 36 83  1  0  0  0
 36181  1  0  0  0
 36182  1  0  0  0
 37 38  1  0  0  0
 37 46  1  0  0  0
 37 89  1  0  0  0
 37183  1  0  0  0
 38 39  1  0  0  0
 38 85  1  0  0  0
 38184  1  0  0  0
 39 40  1  0  0  0
 39 86  1  0  0  0
 39185  1  0  0  0
 40 41  1  0  0  0
 40 88  1  0  0  0
 40186  1  0  0  0
 41 42  1  0  0  0
 41 89  1  0  0  0
 41187  1  0  0  0
 42 90  1  0  0  0
 42188  1  0  0  0
 42189  1  0  0  0
 43 94  1  0  0  0
 44 45  1  0  0  0
 45 95  1  0  0  0
 45 96  1  0  0  0
 45 97  1  0  0  0
 48 49  1  0  0  0
 49 98  1  0  0  0
 49 99  1  0  0  0
 49100  1  0  0  0
 50101  1  0  0  0
 51 52  1  0  0  0
 52102  1  0  0  0
 52103  1  0  0  0
 52104  1  0  0  0
 55 56  1  0  0  0
 56105  1  0  0  0
 56106  1  0  0  0
 56107  1  0  0  0
 57108  1  0  0  0
 58 59  1  0  0  0
 59109  1  0  0  0
 59110  1  0  0  0
 59111  1  0  0  0
 62 63  1  0  0  0
 63112  1  0  0  0
 63113  1  0  0  0
 63114  1  0  0  0
 64115  1  0  0  0
 65 66  1  0  0  0
 66116  1  0  0  0
 66117  1  0  0  0
 66118  1  0  0  0
 69 70  1  0  0  0
 70119  1  0  0  0
 70120  1  0  0  0
 70121  1  0  0  0
 71122  1  0  0  0
 72 73  1  0  0  0
 73123  1  0  0  0
 73124  1  0  0  0
 73125  1  0  0  0
 76 77  1  0  0  0
 77126  1  0  0  0
 77127  1  0  0  0
 77128  1  0  0  0
 78129  1  0  0  0
 79 80  1  0  0  0
 80130  1  0  0  0
 80131  1  0  0  0
 80132  1  0  0  0
 83 84  1  0  0  0
 84133  1  0  0  0
 84134  1  0  0  0
 84135  1  0  0  0
 85136  1  0  0  0
 86 87  1  0  0  0
 87137  1  0  0  0
 87138  1  0  0  0
 87139  1  0  0  0
 90 91  1  0  0  0
 91140  1  0  0  0
 91141  1  0  0  0
 91142  1  0  0  0
M  END
> <s_m_entry_id>
14

> <s_m_Source_Path>
/home/emilio/Dropbox/sims/SAMPL9/work/receptor

> <s_m_Source_File>
bCDH26DM.mol2

> <i_m_Source_File_Index>
1

$$$$

