@<TRIPOS>MOLECULE
g1pm
22   22    1
SMALL
USER_CHARGES


@<TRIPOS>ATOM
      1 C1         14.3651    1.9665    0.3509 C.3       1 UNK        -0.1200 
      2 C2         16.0476    0.3405    1.3220 C.3       1 UNK        -0.1200 
      3 C3         15.4454    3.0602    0.3077 C.3       1 UNK        -0.1200 
      4 C4         17.1292    1.4326    1.2798 C.3       1 UNK        -0.1200 
      5 C5         14.9785    0.5569    0.2323 C.3       1 UNK        -0.0600 
      6 C6         16.5058    2.8337    1.3986 C.3       1 UNK         0.2050 
      7 C7         13.8970   -0.5318    0.2828 C.3       1 UNK        -0.1800 
      8 O8         17.5169    3.8128    1.2866 O.3       1 UNK        -0.6830 
      9 H9         13.8052    2.0475    1.2836 H         1 UNK         0.0600 
     10 H10        13.6479    2.1308   -0.4540 H         1 UNK         0.0600 
     11 H11        16.5128   -0.6383    1.1997 H         1 UNK         0.0600 
     12 H12        15.5756    0.3363    2.3056 H         1 UNK         0.0600 
     13 H13        15.9183    3.0621   -0.6755 H         1 UNK         0.0600 
     14 H14        14.9829    4.0401    0.4316 H         1 UNK         0.0600 
     15 H15        17.8472    1.2717    2.0849 H         1 UNK         0.0600 
     16 H16        17.6874    1.3522    0.3458 H         1 UNK         0.0600 
     17 H17        15.4703    0.4856   -0.7391 H         1 UNK         0.0600 
     18 H18        16.0435    2.9417    2.3805 H         1 UNK         0.0600 
     19 H19        13.3629   -0.5167    1.2334 H         1 UNK         0.0600 
     20 H20        14.3324   -1.5241    0.1617 H         1 UNK         0.0600 
     21 H21        13.1641   -0.3949   -0.5127 H         1 UNK         0.0600 
     22 H22        17.9249    3.7285    0.4384 H         1 UNK         0.4180 
@<TRIPOS>BOND
     1    1    3 1    
     2    1    5 1    
     3    1    9 1    
     4    1   10 1    
     5    2    4 1    
     6    2    5 1    
     7    2   11 1    
     8    2   12 1    
     9    3    6 1    
    10    3   13 1    
    11    3   14 1    
    12    4    6 1    
    13    4   15 1    
    14    4   16 1    
    15    5    7 1    
    16    5   17 1    
    17    6    8 1    
    18    6   18 1    
    19    7   19 1    
    20    7   20 1    
    21    7   21 1    
    22    8   22 1    
@<TRIPOS>SUBSTRUCTURE
     1 UNK         1 GROUP             0       ****    0 ROOT    
