@<TRIPOS>MOLECULE
LIG
22 22
SMALL
USER_CHARGES
@<TRIPOS>ATOM
      1 C1          26.7910   109.3090    40.8140 AA            1 LIG       -0.037430
      2 C2          25.3040   109.8920    38.8480 AB            1 LIG       -0.037430
      3 C3          26.5380   107.8130    40.5630 AD            1 LIG       -0.014613
      4 C4          25.0490   108.3970    38.5950 AE            1 LIG       -0.014613
      5 C5          26.6730   110.1310    39.5150 AF            1 LIG        0.127914
      6 C6          25.1700   107.5870    39.8980 AH            1 LIG        0.201895
      7 C7          26.9200   111.6250    39.7710 AI            1 LIG       -0.327270
      8 O1          25.0000   106.2140    39.6190 AJ            1 LIG       -0.743696
      9 H1          26.0760   109.6790    41.5500 AK            1 LIG        0.012667
     10 H2          27.7800   109.4430    41.2520 AN            1 LIG        0.012667
     11 H3          25.2480   110.4360    37.9040 AO            1 LIG        0.012667
     12 H4          24.5110   110.2920    39.4810 AP            1 LIG        0.012667
     13 H5          27.3300   107.4140    39.9280 AQ            1 LIG        0.012381
     14 H6          26.5910   107.2670    41.5060 AV            1 LIG        0.012381
     15 H7          24.0590   108.2600    38.1580 AW            1 LIG        0.012381
     16 H8          25.7670   108.0270    37.8610 AX            1 LIG        0.012381
     17 H9          27.4460   109.7840    38.8270 AY            1 LIG        0.001826
     18 H10         24.3790   107.8890    40.5850 AZ            1 LIG        0.048860
     19 H11         26.1770   112.0380    40.4550 BB            1 LIG        0.080616
     20 H12         26.8720   112.1960    38.8440 BC            1 LIG        0.080616
     21 H13         27.9040   111.7910    40.2090 BD            1 LIG        0.080616
     22 H14         25.6810   105.9410    39.0230 BF            1 LIG        0.452517
@<TRIPOS>BOND
        1  1  3  1
        2  1  5  1
        3  1  9  1
        4  1  10  1
        5  2  4  1
        6  2  5  1
        7  2  11  1
        8  2  12  1
        9  3  6  1
        10  3  13  1
        11  3  14  1
        12  4  6  1
        13  4  15  1
        14  4  16  1
        15  5  7  1
        16  5  17  1
        17  6  8  1
        18  6  18  1
        19  7  19  1
        20  7  20  1
        21  7  21  1
        22  8  22  1
@<TRIPOS>SUBSTRUCTURE
       1 LIG             1 RESIDUE    0 **** ROOT      0
