@<TRIPOS>MOLECULE
LIG
26 26
SMALL
USER_CHARGES
@<TRIPOS>ATOM
      1 C1           26.103    108.253     40.110 aa            1 LIG       -0.179130
      2 C2           25.328    107.232     39.565 ab            1 LIG       -0.216473
      3 C3           24.129    107.506     38.896 ad            1 LIG        0.191691
      4 C4           23.733    108.846     38.789 ae            1 LIG       -0.216473
      5 C5           24.502    109.874     39.329 af            1 LIG       -0.179130
      6 C6           25.699    109.588     39.996 ah            1 LIG        0.095930
      7 H1           27.018    107.996     40.627 ai            1 LIG        0.190609
      8 H2           25.671    106.221     39.700 aj            1 LIG        0.171786
      9 H3           22.822    109.117     38.284 ak            1 LIG        0.171786
     10 H4           24.161    110.896     39.227 an            1 LIG        0.190609
     11 N1           26.521    110.678     40.576 ao            1 LIG        0.647986
     12 O1           26.119    111.833     40.464 ap            1 LIG       -0.504335
     13 O2           27.569    110.381     41.142 aq            1 LIG       -0.504770
     14 C7           22.023    106.763     37.758 av            1 LIG       -0.121207
     15 H5           22.096    107.517     36.972 aw            1 LIG        0.106034
     16 H6           21.351    107.150     38.527 ax            1 LIG        0.106034
     17 H7           21.553    105.880     37.322 ay            1 LIG        0.106034
     18 C8           23.641    105.039     38.544 az            1 LIG        0.015782
     19 H8           24.714    104.868     38.460 bb            1 LIG        0.090909
     20 H9           23.340    104.396     37.715 bc            1 LIG        0.090909
     21 C9           23.204    104.420     39.895 bd            1 LIG        0.204773
     22 H10          22.179    104.789     39.965 bf            1 LIG        0.036424
     23 H11          22.947    103.360     39.889 bg            1 LIG        0.036424
     24 O3           23.689    105.030     41.079 bh            1 LIG       -0.730926
     25 H12          23.011    104.998     41.759 bj            1 LIG        0.461136
     26 N2           23.339    106.466     38.329 bk            1 LIG       -0.262409
@<TRIPOS>BOND
        1  1  2  2
        2  1  6  1
        3  1  7  1
        4  2  3  1
        5  2  8  1
        6  3  4  2
        7  3  26  1
        8  4  5  1
        9  4  9  1
        10  5  6  2
        11  5  10  1
        12  6  11  1
        13  11  12  2
        14  11  13  1
        15  14  15  1
        16  14  16  1
        17  14  17  1
        18  14  26  1
        19  18  19  1
        20  18  20  1
        21  18  21  1
        22  18  26  1
        23  21  22  1
        24  21  23  1
        25  21  24  1
        26  24  25  1
@<TRIPOS>SUBSTRUCTURE
       1 LIG             1 RESIDUE    0 **** ROOT      0
