@<TRIPOS>MOLECULE
pnitro7
26   26    1
SMALL
USER_CHARGES


@<TRIPOS>ATOM
      1 C1         26.1028  108.2528   40.1099 C.ar      1 ****       -0.0229 
      2 C2         25.3282  107.2324   39.5654 C.ar      1 ****       -0.2068 
      3 C3         24.1288  107.5057   38.8964 C.ar      1 ****        0.3592 
      4 C4         23.7335  108.8463   38.7888 C.ar      1 ****       -0.2068 
      5 C5         24.5023  109.8736   39.3294 C.ar      1 ****       -0.0229 
      6 C6         25.6989  109.5880   39.9963 C.ar      1 ****       -0.2451 
      7 H7         27.0180  107.9959   40.6272 H         1 ****        0.1625 
      8 H8         25.6710  106.2209   39.6996 H         1 ****        0.1463 
      9 H9         22.8219  109.1167   38.2838 H         1 ****        0.1463 
     10 H10        24.1614  110.8956   39.2267 H         1 ****        0.1625 
     11 N11        26.5209  110.6782   40.5761 N.pl3     1 ****        0.7091 
     12 O12        26.1191  111.8327   40.4639 O.co2     1 ****       -0.4007 
     13 O13        27.5690  110.3812   41.1417 O.co2     1 ****       -0.4007 
     14 C14        22.0227  106.7635   37.7581 C.3       1 ****        0.0836 
     15 H15        22.0961  107.5172   36.9723 H         1 ****        0.0692 
     16 H16        21.3512  107.1496   38.5272 H         1 ****        0.0692 
     17 H17        21.5530  105.8802   37.3223 H         1 ****        0.0692 
     18 C18        23.6410  105.0393   38.5435 C.3       1 ****        0.1113 
     19 H19        24.7136  104.8682   38.4604 H         1 ****        0.0903 
     20 H20        23.3404  104.3957   37.7150 H         1 ****        0.0903 
     21 C21        23.2036  104.4198   39.8946 C.3       1 ****        0.1148 
     22 H22        22.1789  104.7889   39.9652 H         1 ****        0.0540 
     23 H23        22.9469  103.3596   39.8886 H         1 ****        0.0540 
     24 O24        23.6894  105.0297   41.0791 O.3       1 ****       -0.6594 
     25 H25        23.0113  104.9982   41.7591 H         1 ****        0.4286 
     26 N26        23.3387  106.4659   38.3290 N.pl3     1 ****       -0.7551 
@<TRIPOS>BOND
     1    1    2 ar   
     2    1    6 ar   
     3    1    7 1    
     4    2    3 ar   
     5    2    8 1    
     6    3    4 ar   
     7    3   26 1    
     8    4    5 ar   
     9    4    9 1    
    10    5    6 ar   
    11    5   10 1    
    12    6   11 1    
    13   11   12 2    
    14   11   13 1    
    15   14   15 1    
    16   14   16 1    
    17   14   17 1    
    18   14   26 1    
    19   18   19 1    
    20   18   20 1    
    21   18   21 1    
    22   18   26 1    
    23   21   22 1    
    24   21   23 1    
    25   21   24 1    
    26   24   25 1    
@<TRIPOS>SUBSTRUCTURE
     1 ****        1 GROUP             0       ****    0 ROOT    
