@<TRIPOS>MOLECULE
LIG
41 43
SMALL
USER_CHARGES
@<TRIPOS>ATOM
      1 C1         26.6647  110.0946   45.1562 AA             0 LIG     -0.148984
      2 C2         27.9282  109.7722   45.6847 AB             0 LIG     -0.148984
      3 C3         26.5506  111.0638   44.1411 AD             0 LIG     -0.216162
      4 C4         29.0754  110.4268   45.2003 AE             0 LIG     -0.191448
      5 C5         30.6507  114.8366   42.9966 AF             0 LIG     -0.191448
      6 C6         30.1508  116.0965   42.5052 AH             0 LIG     -0.201273
      7 C7         27.9600  115.0938   42.1363 AI             0 LIG     -0.282378
      8 C8         27.6958  111.7264   43.6391 AJ             0 LIG     0.090825
      9 C9         28.4328  113.8406   42.5990 AK             0 LIG     0.090825
     10 C10        28.9605  111.4077   44.1960 AN             0 LIG     0.113170
     11 C11        29.7731  113.7433   43.0384 AO             0 LIG     0.113170
     12 C12        28.8088  116.2097   42.0852 AP             0 LIG     0.139586
     13 C13        27.2671  108.2839   38.9904 AQ             0 LIG     -0.327670
     14 C14        26.2031  109.6141   37.2332 AV             0 LIG     -0.327670
     15 C15        27.5273  110.8985   40.6503 AW             0 LIG     -0.018552
     16 C16        27.0035  112.1369   41.4413 AX             0 LIG     0.030051
     17 C17        26.5744  110.6391   39.4506 AY             0 LIG     0.155353
     18 N1         27.5908  112.7085   42.6317 AZ             0 LIG     -0.186524
     19 N2         27.0615  109.6509   38.4473 BB             0 LIG     0.134459
     20 S1         30.4291  112.2231   43.6482 BC             0 LIG     -0.184949
     21 CL1        28.2162  117.7134   41.4874 BD             0 LIG     -0.163674
     22 H1         25.7801  109.6018   45.5360 BF             0 LIG     0.167367
     23 H2         28.0188  109.0316   46.4663 BG             0 LIG     0.167367
     24 H3         25.5647  111.3032   43.7747 BH             0 LIG     0.144463
     25 H4         30.0470  110.1864   45.6082 BJ             0 LIG     0.182657
     26 H5         31.6561  114.7706   43.3123 BK             0 LIG     0.182657
     27 H6         30.8084  116.9536   42.4655 BL             0 LIG     0.185066
     28 H7         26.9361  115.2122   41.8187 BM             0 LIG     0.159917
     29 H8         26.3411  107.8667   39.3848 BN             0 LIG     0.163775
     30 H9         28.0102  108.2724   39.7849 BO             0 LIG     0.163775
     31 H10        27.6297  107.6075   38.2149 BP             0 LIG     0.163775
     32 H11        25.2039  109.2360   37.4601 BQ             0 LIG     0.163775
     33 H12        26.6327  108.9688   36.4629 BS             0 LIG     0.163775
     34 H13        26.0893  110.6064   36.7927 BT             0 LIG     0.163775
     35 H14        28.5433  111.0965   40.3032 BU             0 LIG     0.042423
     36 H15        27.5873  109.9780   41.2199 BV             0 LIG     0.042423
     37 H16        26.7215  112.8725   40.7276 BW             0 LIG     0.092460
     38 H17        26.2174  111.8513   42.0498 BX             0 LIG     0.092460
     39 H18        25.6007  110.3165   39.8162 BY             0 LIG     0.021392
     40 H19        26.3947  111.5819   38.9341 BZ             0 LIG     0.021392
     41 H20        27.9660  109.9773   38.1335 CB             0 LIG     0.237587
@<TRIPOS>BOND
        1  1  2  2
        2  1  3  1
        3  1  22  1
        4  2  4  1
        5  2  23  1
        6  3  8  2
        7  3  24  1
        8  4  10  2
        9  4  25  1
        10  5  6  1
        11  5  11  2
        12  5  26  1
        13  6  12  2
        14  6  27  1
        15  7  9  2
        16  7  12  1
        17  7  28  1
        18  8  10  1
        19  8  18  1
        20  9  11  1
        21  9  18  1
        22  10  20  1
        23  11  20  1
        24  12  21  1
        25  13  19  1
        26  13  29  1
        27  13  30  1
        28  13  31  1
        29  14  19  1
        30  14  32  1
        31  14  33  1
        32  14  34  1
        33  15  16  1
        34  15  17  1
        35  15  35  1
        36  15  36  1
        37  16  18  1
        38  16  37  1
        39  16  38  1
        40  17  19  1
        41  17  39  1
        42  17  40  1
        43  19  41  1
@<TRIPOS>SUBSTRUCTURE
       1 LIG             1 RESIDUE    0 **** ROOT      0

