CPZ1aspS
                    3D
 Schrodinger Suite 2019-4.
 41 43  0  0  1  0            999 V2000
   26.6647  110.0946   45.1562 C   0  0  0  0  0  0
   27.9282  109.7722   45.6847 C   0  0  0  0  0  0
   26.5506  111.0638   44.1411 C   0  0  0  0  0  0
   29.0754  110.4268   45.2003 C   0  0  0  0  0  0
   30.6507  114.8366   42.9966 C   0  0  0  0  0  0
   30.1508  116.0965   42.5052 C   0  0  0  0  0  0
   27.9600  115.0938   42.1363 C   0  0  0  0  0  0
   27.6958  111.7264   43.6391 C   0  0  0  0  0  0
   28.4328  113.8406   42.5990 C   0  0  0  0  0  0
   28.9605  111.4077   44.1960 C   0  0  0  0  0  0
   29.7731  113.7433   43.0384 C   0  0  0  0  0  0
   28.8088  116.2097   42.0852 C   0  0  0  0  0  0
   27.2671  108.2839   38.9904 C   0  0  0  0  0  0
   26.2031  109.6141   37.2332 C   0  0  0  0  0  0
   27.5273  110.8985   40.6503 C   0  0  0  0  0  0
   27.0035  112.1369   41.4413 C   0  0  0  0  0  0
   26.5744  110.6391   39.4506 C   0  0  0  0  0  0
   27.5908  112.7085   42.6317 N   0  0  0  0  0  0
   27.0615  109.6509   38.4473 N   0  3  0  0  0  0
   30.4291  112.2231   43.6482 S   0  0  0  0  0  0
   28.2162  117.7134   41.4874 Cl  0  0  0  0  0  0
   25.7801  109.6018   45.5360 H   0  0  0  0  0  0
   28.0188  109.0316   46.4663 H   0  0  0  0  0  0
   25.5647  111.3032   43.7747 H   0  0  0  0  0  0
   30.0470  110.1864   45.6082 H   0  0  0  0  0  0
   31.6561  114.7706   43.3123 H   0  0  0  0  0  0
   30.8084  116.9536   42.4655 H   0  0  0  0  0  0
   26.9361  115.2122   41.8187 H   0  0  0  0  0  0
   26.3411  107.8667   39.3848 H   0  0  0  0  0  0
   28.0102  108.2724   39.7849 H   0  0  0  0  0  0
   27.6297  107.6075   38.2149 H   0  0  0  0  0  0
   25.2039  109.2360   37.4601 H   0  0  0  0  0  0
   26.6327  108.9688   36.4629 H   0  0  0  0  0  0
   26.0893  110.6064   36.7927 H   0  0  0  0  0  0
   28.5433  111.0965   40.3032 H   0  0  0  0  0  0
   27.5873  109.9780   41.2199 H   0  0  0  0  0  0
   26.7215  112.8725   40.7276 H   0  0  0  0  0  0
   26.2174  111.8513   42.0498 H   0  0  0  0  0  0
   25.6007  110.3165   39.8162 H   0  0  0  0  0  0
   26.3947  111.5819   38.9341 H   0  0  0  0  0  0
   27.9660  109.9773   38.1335 H   0  0  0  0  0  0
  1  2  2  0  0  0
  1  3  1  0  0  0
  1 22  1  0  0  0
  2  4  1  0  0  0
  2 23  1  0  0  0
  3  8  2  0  0  0
  3 24  1  0  0  0
  4 10  2  0  0  0
  4 25  1  0  0  0
  5  6  2  0  0  0
  5 11  1  0  0  0
  5 26  1  0  0  0
  6 12  1  0  0  0
  6 27  1  0  0  0
  7  9  1  0  0  0
  7 12  2  0  0  0
  7 28  1  0  0  0
  8 10  1  0  0  0
  8 18  1  0  0  0
  9 11  2  0  0  0
  9 18  1  0  0  0
 10 20  1  0  0  0
 11 20  1  0  0  0
 12 21  1  0  0  0
 13 19  1  0  0  0
 13 29  1  0  0  0
 13 30  1  0  0  0
 13 31  1  0  0  0
 14 19  1  0  0  0
 14 32  1  0  0  0
 14 33  1  0  0  0
 14 34  1  0  0  0
 15 16  1  0  0  0
 15 17  1  0  0  0
 15 35  1  0  0  0
 15 36  1  0  0  0
 16 18  1  0  0  0
 16 37  1  0  0  0
 16 38  1  0  0  0
 17 19  1  0  0  0
 17 39  1  0  0  0
 17 40  1  0  0  0
 19 41  1  0  0  0
M  CHG  1  19   1
M  END
> <s_m_entry_id>
462

> <s_m_Source_Path>
/home/emilio/Dropbox/SAMPL9-eglab/mCD/ligsdfs

> <s_m_Source_File>
CPZ1aspS.sdf

> <i_m_Source_File_Index>
1

> <r_epik_Ionization_Penalty>
  0.0036

> <r_epik_State_Penalty>
  0.0025

> <i_epik_Tot_Q>
1

> <s_m_job_name>
ligprep_4

> <i_f3d_flags>
0

$$$$
