@<TRIPOS>MOLECULE
LIG
41 43
SMALL
USER_CHARGES
@<TRIPOS>ATOM
      1 C1         26.6245  110.3108   45.3470 AA             0 LIG     -0.150100
      2 C2         28.8111  116.2141   42.0847 AB             0 LIG     -0.150100
      3 C3         27.8793  110.0176   45.9083 AD             0 LIG     -0.150100
      4 C4         30.1447  116.1024   42.5207 AE             0 LIG     -0.150100
      5 C5         26.5261  111.1792   44.2406 AF             0 LIG     -0.220762
      6 C6         27.9663  115.0862   42.0963 AH             0 LIG     -0.220762
      7 C7         29.0402  110.5976   45.3666 AI             0 LIG     -0.190531
      8 C8         30.6316  114.8625   42.9735 AJ             0 LIG     -0.190531
      9 C9         27.6848  111.7830   43.6974 AK             0 LIG     0.084657
     10 C10        28.4447  113.8330   42.5523 AN             0 LIG     0.084657
     11 C11        28.9444  111.4809   44.2719 AO             0 LIG     0.115853
     12 C12        29.7853  113.7381   43.0029 AP             0 LIG     0.115853
     13 C13        28.5522  110.7112   40.1538 AQ             0 LIG     -0.353988
     14 C14        25.7507  111.7511   39.0152 AV             0 LIG     -0.185375
     15 C15        24.7745  109.9908   40.3898 AW             0 LIG     -0.185375
     16 C16        26.9511  112.0886   41.5701 AX             0 LIG     0.002465
     17 C17        27.1491  110.7457   40.8096 AY             1 LIG     0.085935
     18 N1         27.5994  112.7073   42.6347 AZ             0 LIG     -0.190232
     19 N2         26.0370  110.5383   39.8251 BB             0 LIG     0.109280
     20 S1         30.4210  112.2203   43.6464 BC             0 LIG     -0.188456
     21 H1         25.7340  109.8829   45.7837 BD             0 LIG     0.166423
     22 H2         28.4330  117.1747   41.7634 BF             0 LIG     0.166423
     23 H3         27.9529  109.3595   46.7647 BG             0 LIG     0.166423
     24 H4         30.7917  116.9700   42.5228 BH             0 LIG     0.166423
     25 H5         25.5444  111.4153   43.8645 BJ             0 LIG     0.128375
     26 H6         26.9368  115.2182   41.8006 BK             0 LIG     0.128375
     27 H7         30.0030  110.3833   45.8056 BL             0 LIG     0.178440
     28 H8         31.6472  114.7769   43.3292 BM             0 LIG     0.178440
     29 H9         29.3356  110.8978   40.8922 BN             0 LIG     0.122803
     30 H10        28.6586  111.4764   39.3813 BO             0 LIG     0.122803
     31 H11        28.7955  109.7424   39.7149 BP             0 LIG     0.122803
     32 H12        25.3728  112.5615   39.6422 BQ             0 LIG     0.123915
     33 H13        24.9943  111.5467   38.2527 BS             0 LIG     0.123915
     34 H14        26.6290  112.1214   38.4879 BT             0 LIG     0.123915
     35 H15        24.3864  110.6298   41.1862 BU             0 LIG     0.123915
     36 H16        24.9086  108.9834   40.7875 BV             0 LIG     0.123915
     37 H17        24.0019  109.9117   39.6214 BW             0 LIG     0.123915
     38 H18        27.0041  112.8869   40.8319 BX             0 LIG     0.090289
     39 H19        25.9630  112.1795   42.0137 BY             0 LIG     0.090289
     40 H20        27.1052  109.9231   41.5244 BZ             0 LIG     0.141962
     41 H21        26.3705  109.8324   39.1802 CB             0 LIG     0.213953
@<TRIPOS>BOND
        1  1  3  2
        2  1  5  1
        3  1  21  1
        4  2  4  2
        5  2  6  1
        6  2  22  1
        7  3  7  1
        8  3  23  1
        9  4  8  1
        10  4  24  1
        11  5  9  2
        12  5  25  1
        13  6  10  2
        14  6  26  1
        15  7  11  2
        16  7  27  1
        17  8  12  2
        18  8  28  1
        19  9  11  1
        20  9  18  1
        21  10  12  1
        22  10  18  1
        23  11  20  1
        24  12  20  1
        25  13  17  1
        26  13  29  1
        27  13  30  1
        28  13  31  1
        29  14  19  1
        30  14  32  1
        31  14  33  1
        32  14  34  1
        33  15  19  1
        34  15  35  1
        35  15  36  1
        36  15  37  1
        37  16  17  1
        38  16  18  1
        39  16  38  1
        40  16  39  1
        41  17  19  1
        42  17  40  1
        43  19  41  1
@<TRIPOS>SUBSTRUCTURE
       1 LIG             1 RESIDUE    0 **** ROOT      0

