@<TRIPOS>MOLECULE
LIG
41 43
SMALL
USER_CHARGES
@<TRIPOS>ATOM
      1 C1         26.4857  110.5174   45.3955 PA             0 LIG     -0.151978
      2 C2         28.8349  116.1908   42.0983 PB             0 LIG     -0.151978
      3 C3         27.7533  110.1526   46.0398 PD             0 LIG     -0.151978
      4 C4         30.1805  116.0680   42.4211 PE             0 LIG     -0.151978
      5 C5         26.4242  111.4104   44.2731 PF             0 LIG     -0.221382
      6 C6         28.0130  115.0657   42.1379 PH             0 LIG     -0.221382
      7 C7         28.9782  110.5944   45.4267 PI             0 LIG     -0.192007
      8 C8         30.6203  114.8468   42.8913 PJ             0 LIG     -0.192007
      9 C9         27.6322  111.8846   43.8022 PK             0 LIG     0.086899
     10 C10        28.4464  113.8053   42.6237 PN             0 LIG     0.086899
     11 C11        28.8852  111.5000   44.3593 PO             0 LIG     0.115779
     12 C12        29.7488  113.7570   43.0238 PP             0 LIG     0.115779
     13 C13        27.7041  107.9728   40.2688 PQ             0 LIG     -0.319173
     14 C14        26.4470  108.4247   38.1002 PV             0 LIG     -0.319173
     15 C15        27.7187  110.8455   40.8700 PW             0 LIG     -0.018118
     16 C16        27.0452  112.1209   41.3994 PX             0 LIG     0.036275
     17 C17        26.9195  110.2045   39.6680 PY             0 LIG     0.012268
     18 N1         27.6379  112.6803   42.6539 PZ             0 LIG     -0.191498
     19 N2         27.4919  108.9833   39.0672 QB             0 LIG     0.153200
     20 S1         30.3587  112.2706   43.6136 QC             0 LIG     -0.201542
     21 H1         25.5660  109.9192   45.6798 QD             0 LIG     0.160898
     22 H2         28.4817  117.1593   41.7155 QF             0 LIG     0.160898
     23 H3         27.7448  109.3748   46.7665 QG             0 LIG     0.160898
     24 H4         30.8936  116.8765   42.3781 QH             0 LIG     0.160898
     25 H5         25.4482  111.6973   43.7883 QJ             0 LIG     0.134456
     26 H6         27.0150  115.2066   41.7956 QK             0 LIG     0.134456
     27 H7         29.9401  110.2951   45.8607 QL             0 LIG     0.174337
     28 H8         31.6860  114.8380   43.1882 QM             0 LIG     0.174337
     29 H9         28.5598  108.3555   40.9047 QN             0 LIG     0.158404
     30 H10        27.8717  107.0030   39.8944 QO             0 LIG     0.158404
     31 H11        26.7913  107.9474   40.8552 QP             0 LIG     0.158404
     32 H12        26.5459  108.9106   37.1518 QQ             0 LIG     0.158404
     33 H13        25.5129  108.6364   38.4801 QS             0 LIG     0.158404
     34 H14        26.5627  107.4239   37.7500 QT             0 LIG     0.158404
     35 H15        28.6222  111.1419   40.3838 QU             0 LIG     0.041463
     36 H16        27.9878  110.1426   41.6709 QV             0 LIG     0.041463
     37 H17        26.9195  112.9633   40.6924 QW             0 LIG     0.085391
     38 H18        26.0094  111.9135   41.6258 QX             0 LIG     0.085391
     39 H19        25.9350  109.8857   40.0114 QY             0 LIG     0.073022
     40 H20        26.7089  110.9842   38.9384 QZ             0 LIG     0.073022
     41 H21        28.4469  109.1923   38.5721 RB             0 LIG     0.265740
@<TRIPOS>BOND
        1  1  3  2
        2  1  5  1
        3  1  21  1
        4  2  4  2
        5  2  6  1
        6  2  22  1
        7  3  7  1
        8  3  23  1
        9  4  8  1
        10  4  24  1
        11  5  9  2
        12  5  25  1
        13  6  10  2
        14  6  26  1
        15  7  11  2
        16  7  27  1
        17  8  12  2
        18  8  28  1
        19  9  11  1
        20  9  18  1
        21  10  12  1
        22  10  18  1
        23  11  20  1
        24  12  20  1
        25  13  19  1
        26  13  29  1
        27  13  30  1
        28  13  31  1
        29  14  19  1
        30  14  32  1
        31  14  33  1
        32  14  34  1
        33  15  16  1
        34  15  17  1
        35  15  35  1
        36  15  36  1
        37  16  18  1
        38  16  37  1
        39  16  38  1
        40  17  19  1
        41  17  39  1
        42  17  40  1
        43  19  41  1
@<TRIPOS>SUBSTRUCTURE
       1 LIG             1 RESIDUE    0 **** ROOT      0

