@<TRIPOS>MOLECULE
LIG
41 43
SMALL
USER_CHARGES
@<TRIPOS>ATOM
      1 C1           16.331      0.163      1.421 PA            1 LIG       -0.151978
      2 C2            9.306     -0.655      0.367 PB            1 LIG       -0.151978
      3 C3           16.186      1.510      1.726 PD            1 LIG       -0.151978
      4 C4            9.047      0.681      0.648 PE            1 LIG       -0.151978
      5 C5           15.306     -0.517      0.766 PF            1 LIG       -0.221382
      6 C6           10.602     -1.065      0.063 PH            1 LIG       -0.221382
      7 C7           15.025      2.179      1.356 PI            1 LIG       -0.192007
      8 C8           10.084      1.605      0.605 PJ            1 LIG       -0.192007
      9 C9           14.105      0.123      0.396 PK            1 LIG        0.086899
     10 C10          11.682     -0.157      0.031 PN            1 LIG        0.086899
     11 C11          14.002      1.503      0.687 PO            1 LIG        0.115779
     12 C12          11.383      1.200      0.289 PP            1 LIG        0.115779
     13 C13          11.722     -5.393      1.958 PQ            1 LIG       -0.319173
     14 C14          12.851     -6.935      0.294 PV            1 LIG       -0.319173
     15 C15          13.152     -3.046      0.419 PW            1 LIG       -0.018118
     16 C16          13.238     -1.952     -0.677 PX            1 LIG        0.036275
     17 C17          12.830     -4.431     -0.168 PY            1 LIG        0.012268
     18 N1           13.019     -0.574     -0.189 PZ            1 LIG       -0.191498
     19 N2           12.857     -5.528      0.922 QB            1 LIG        0.153200
     20 S1           12.619      2.435      0.143 QC            1 LIG       -0.201542
     21 H1           17.236     -0.358      1.694 QD            1 LIG        0.160898
     22 H2            8.502     -1.377      0.390 QF            1 LIG        0.160898
     23 H3           16.978      2.040      2.235 QG            1 LIG        0.160898
     24 H4            8.043      1.001      0.885 QH            1 LIG        0.160898
     25 H5           15.483     -1.559      0.559 QJ            1 LIG        0.134456
     26 H6           10.738     -2.116     -0.135 QK            1 LIG        0.134456
     27 H7           14.931      3.233      1.571 QL            1 LIG        0.174337
     28 H8            9.871      2.647      0.799 QM            1 LIG        0.174337
     29 H9           10.773     -5.425      1.420 QN            1 LIG        0.158404
     30 H10          11.854     -4.449      2.486 QO            1 LIG        0.158404
     31 H11          11.815     -6.228      2.654 QP            1 LIG        0.158404
     32 H12          11.915     -7.052     -0.255 QQ            1 LIG        0.158404
     33 H13          12.934     -7.657      1.107 QS            1 LIG        0.158404
     34 H14          13.716     -7.001     -0.368 QT            1 LIG        0.158404
     35 H15          14.125     -3.150      0.895 QU            1 LIG        0.041463
     36 H16          12.487     -2.749      1.229 QV            1 LIG        0.041463
     37 H17          14.204     -2.002     -1.182 QW            1 LIG        0.085391
     38 H18          12.544     -2.164     -1.492 QX            1 LIG        0.085391
     39 H19          11.845     -4.481     -0.635 QY            1 LIG        0.073022
     40 H20          13.590     -4.723     -0.895 QZ            1 LIG        0.073022
     41 H21          13.734     -5.434      1.418 RB            1 LIG        0.265740
@<TRIPOS>BOND
        1  1  3  2
        2  1  5  1
        3  1  21  1
        4  2  4  2
        5  2  6  1
        6  2  22  1
        7  3  7  1
        8  3  23  1
        9  4  8  1
        10  4  24  1
        11  5  9  2
        12  5  25  1
        13  6  10  2
        14  6  26  1
        15  7  11  2
        16  7  27  1
        17  8  12  2
        18  8  28  1
        19  9  11  1
        20  9  18  1
        21  10  12  1
        22  10  18  1
        23  11  20  1
        24  12  20  1
        25  13  19  1
        26  13  29  1
        27  13  30  1
        28  13  31  1
        29  14  19  1
        30  14  32  1
        31  14  33  1
        32  14  34  1
        33  15  16  1
        34  15  17  1
        35  15  35  1
        36  15  36  1
        37  16  18  1
        38  16  37  1
        39  16  38  1
        40  17  19  1
        41  17  39  1
        42  17  40  1
        43  19  41  1
@<TRIPOS>SUBSTRUCTURE
       1 LIG             1 RESIDUE    0 **** ROOT      0
