@<TRIPOS>MOLECULE
LIG
52 55
SMALL
USER_CHARGES
@<TRIPOS>ATOM
      1 C1         26.6200  110.2022   45.2113 AA             0 LIG     -0.151741
      2 C2         27.8749  109.8974   45.7742 AB             0 LIG     -0.151741
      3 C3         26.5307  111.1190   44.1454 AD             0 LIG     -0.220252
      4 C4         29.0389  110.5065   45.2700 AE             0 LIG     -0.194616
      5 C5         30.6356  114.8638   42.9756 AF             0 LIG     -0.194616
      6 C6         30.1472  116.0985   42.5099 AH             0 LIG     -0.194616
      7 C7         27.9642  115.0765   42.1091 AI             0 LIG     -0.276550
      8 C8         27.6895  111.7511   43.6464 AJ             0 LIG     0.084603
      9 C9         28.4426  113.8383   42.5871 AK             0 LIG     0.084603
     10 C10        28.9474  111.4408   44.2221 AN             0 LIG     0.112404
     11 C11        29.7842  113.7446   43.0319 AO             0 LIG     0.112404
     12 C12        28.8087  116.2044   42.0865 AP             0 LIG     0.163041
     13 C13        25.8424  108.3180   41.1089 AQ             0 LIG     -0.029878
     14 C14        26.7133  107.3628   40.2794 AV             0 LIG     -0.034345
     15 C15        25.5134  109.5931   40.3134 AW             0 LIG     -0.054555
     16 C16        27.9555  108.0800   39.7248 AX             0 LIG     0.011138
     17 C17        26.7766  110.2800   39.7427 AY             1 LIG     0.149935
     18 C18        28.6669  109.8561   38.1438 AZ             0 LIG     -0.244054
     19 C19        29.0474  119.0512   42.4378 BB             0 LIG     -0.160589
     20 C20        27.6256  110.9983   40.8258 BC             0 LIG     -0.033239
     21 C21        26.9909  112.2994   41.3623 BD             0 LIG     0.039575
     22 N1         27.5966  112.7166   42.6314 BF             0 LIG     -0.187004
     23 N2         27.5552  109.2821   38.9440 BG             1 LIG     -0.070769
     24 S1         30.4262  112.2207   43.6479 BH             0 LIG     -0.197900
     25 S2         28.1726  117.7485   41.5246 BJ             0 LIG     -0.258446
     26 H1         25.7256  109.7425   45.6056 BK             0 LIG     0.161610
     27 H2         27.9463  109.2062   46.6020 BL             0 LIG     0.161610
     28 H3         25.5595  111.3624   43.7442 BM             0 LIG     0.136076
     29 H4         30.0033  110.2765   45.6996 BN             0 LIG     0.176324
     30 H5         31.6596  114.7830   43.3101 BO             0 LIG     0.176324
     31 H6         30.8029  116.9559   42.4868 BP             0 LIG     0.176324
     32 H7         26.9357  115.1756   41.7976 BQ             0 LIG     0.140791
     33 H8         24.9198  107.8131   41.4031 BS             0 LIG     0.046381
     34 H9         26.3531  108.5697   42.0381 BT             0 LIG     0.046381
     35 H10        27.0151  106.5108   40.8929 BU             0 LIG     0.049941
     36 H11        26.1261  106.9448   39.4582 BV             0 LIG     0.049941
     37 H12        24.8440  109.3311   39.4916 BW             0 LIG     0.046927
     38 H13        24.9459  110.2819   40.9410 BX             0 LIG     0.046927
     39 H14        28.6295  108.3596   40.5375 BY             0 LIG     0.081886
     40 H15        28.5091  107.3903   39.0849 BZ             0 LIG     0.081886
     41 H16        26.4394  111.0447   39.0363 CB             0 LIG     0.038290
     42 H17        29.5233  110.1285   38.7641 CI             0 LIG     0.142123
     43 H18        28.3441  110.7426   37.5959 CJ             0 LIG     0.142123
     44 H19        29.0172  109.1277   37.4091 CK             0 LIG     0.142123
     45 H20        28.5566  120.0101   42.2740 CM             0 LIG     0.110774
     46 H21        30.0814  119.1400   42.1076 CN             0 LIG     0.110774
     47 H22        29.0400  118.8423   43.5070 CT             0 LIG     0.110774
     48 H23        27.8359  110.3313   41.6609 CW             0 LIG     0.042019
     49 H24        28.5962  111.2604   40.4109 DA             0 LIG     0.042019
     50 H25        27.0991  113.1044   40.6344 DB             0 LIG     0.082888
     51 H26        25.9165  112.1642   41.4831 DC             0 LIG     0.082888
     52 H27        26.8963  108.9413   38.2583 DD             0 LIG     0.271082
@<TRIPOS>BOND
        1  1  2  2
        2  1  3  1
        3  1  26  1
        4  2  4  1
        5  2  27  1
        6  3  8  2
        7  3  28  1
        8  4  10  2
        9  4  29  1
        10  5  6  1
        11  5  11  2
        12  5  30  1
        13  6  12  2
        14  6  31  1
        15  7  9  2
        16  7  12  1
        17  7  32  1
        18  8  10  1
        19  8  22  1
        20  9  11  1
        21  9  22  1
        22  10  24  1
        23  11  24  1
        24  12  25  1
        25  13  14  1
        26  13  15  1
        27  13  33  1
        28  13  34  1
        29  14  16  1
        30  14  35  1
        31  14  36  1
        32  15  17  1
        33  15  37  1
        34  15  38  1
        35  16  23  1
        36  16  39  1
        37  16  40  1
        38  17  20  1
        39  17  23  1
        40  17  41  1
        41  18  23  1
        42  18  42  1
        43  18  43  1
        44  18  44  1
        45  19  25  1
        46  19  45  1
        47  19  46  1
        48  19  47  1
        49  20  21  1
        50  20  48  1
        51  20  49  1
        52  21  22  1
        53  21  50  1
        54  21  51  1
        55  23  52  1
@<TRIPOS>SUBSTRUCTURE
       1 LIG             1 RESIDUE    0 **** ROOT      0

