TDZNR1aspS
                    3D
 Schrodinger Suite 2019-4.
 52 55  0  0  1  0            999 V2000
   26.5872  110.4431   45.4245 C   0  0  0  0  0  0
   27.8458  110.0858   45.9488 C   0  0  0  0  0  0
   26.5004  111.3225   44.3278 C   0  0  0  0  0  0
   29.0196  110.6217   45.3823 C   0  0  0  0  0  0
   30.6553  114.8404   42.9762 C   0  0  0  0  0  0
   30.1419  116.1013   42.5218 C   0  0  0  0  0  0
   27.9775  115.0720   42.0577 C   0  0  0  0  0  0
   27.6736  111.8469   43.7414 C   0  0  0  0  0  0
   28.4590  113.8291   42.5347 C   0  0  0  0  0  0
   28.9330  111.5120   44.2962 C   0  0  0  0  0  0
   29.7920  113.7355   42.9941 C   0  0  0  0  0  0
   28.8047  116.2089   42.0838 C   0  0  0  0  0  0
   24.3305  110.4537   38.3504 C   0  0  0  0  0  0
   24.2430  108.9305   38.3813 C   0  0  0  0  0  0
   25.1526  110.9535   39.5427 C   0  0  0  0  0  0
   25.6525  108.3275   38.4055 C   0  0  0  0  0  0
   26.5654  110.3089   39.6338 C   0  0  1  0  0  0
   27.7512  108.0922   39.6472 C   0  0  0  0  0  0
   28.7210  118.9504   42.8585 C   0  0  0  0  0  0
   27.3840  110.8070   40.8829 C   0  0  0  0  0  0
   26.8790  112.1340   41.5158 C   0  0  0  0  0  0
   27.6054  112.7145   42.6347 N   0  0  0  0  0  0
   26.4504  108.8120   39.5697 N   0  3  2  0  0  0
   30.4191  112.2184   43.6463 S   0  0  0  0  0  0
   28.1491  117.7703   41.6007 S   0  0  0  0  0  0
   25.6870  110.0455   45.8709 H   0  0  0  0  0  0
   27.9137  109.4152   46.7927 H   0  0  0  0  0  0
   25.5320  111.6149   43.9474 H   0  0  0  0  0  0
   29.9855  110.3590   45.7888 H   0  0  0  0  0  0
   31.6586  114.7795   43.3149 H   0  0  0  0  0  0
   30.7884  116.9662   42.5274 H   0  0  0  0  0  0
   26.9525  115.1726   41.7349 H   0  0  0  0  0  0
   24.7728  110.7849   37.4091 H   0  0  0  0  0  0
   23.3274  110.8837   38.3782 H   0  0  0  0  0  0
   23.6706  108.6032   39.2510 H   0  0  0  0  0  0
   23.6926  108.5701   37.5091 H   0  0  0  0  0  0
   25.2308  112.0395   39.4459 H   0  0  0  0  0  0
   24.5888  110.7612   40.4593 H   0  0  0  0  0  0
   25.5597  107.2422   38.4450 H   0  0  0  0  0  0
   26.1695  108.5553   37.4710 H   0  0  0  0  0  0
   27.1129  110.6341   38.7463 H   0  0  0  0  0  0
   28.4353  108.4170   38.8590 H   0  0  0  0  0  0
   27.5995  107.0148   39.5334 H   0  0  0  0  0  0
   28.2397  108.2353   40.6129 H   0  0  0  0  0  0
   28.2260  119.9138   42.7275 H   0  0  0  0  0  0
   29.7972  119.1085   42.7849 H   0  0  0  0  0  0
   28.4915  118.5823   43.8598 H   0  0  0  0  0  0
   27.3932  110.0534   41.6703 H   0  0  0  0  0  0
   28.4315  110.9439   40.5979 H   0  0  0  0  0  0
   26.8853  112.8785   40.7581 H   0  0  0  0  0  0
   25.8793  111.9730   41.8614 H   0  0  0  0  0  0
   25.9243  108.5380   40.3888 H   0  0  0  0  0  0
  1  2  2  0  0  0
  1  3  1  0  0  0
  1 26  1  0  0  0
  2  4  1  0  0  0
  2 27  1  0  0  0
  3  8  2  0  0  0
  3 28  1  0  0  0
  4 10  2  0  0  0
  4 29  1  0  0  0
  5  6  2  0  0  0
  5 11  1  0  0  0
  5 30  1  0  0  0
  6 12  1  0  0  0
  6 31  1  0  0  0
  7  9  1  0  0  0
  7 12  2  0  0  0
  7 32  1  0  0  0
  8 10  1  0  0  0
  8 22  1  0  0  0
  9 11  2  0  0  0
  9 22  1  0  0  0
 10 24  1  0  0  0
 11 24  1  0  0  0
 12 25  1  0  0  0
 13 14  1  0  0  0
 13 15  1  0  0  0
 13 33  1  0  0  0
 13 34  1  0  0  0
 14 16  1  0  0  0
 14 35  1  0  0  0
 14 36  1  0  0  0
 15 17  1  0  0  0
 15 37  1  0  0  0
 15 38  1  0  0  0
 16 23  1  0  0  0
 16 39  1  0  0  0
 16 40  1  0  0  0
 17 20  1  0  0  0
 17 23  1  0  0  0
 17 41  1  0  0  0
 18 23  1  0  0  0
 18 42  1  0  0  0
 18 43  1  0  0  0
 18 44  1  0  0  0
 19 25  1  0  0  0
 19 45  1  0  0  0
 19 46  1  0  0  0
 19 47  1  0  0  0
 20 21  1  0  0  0
 20 48  1  0  0  0
 20 49  1  0  0  0
 21 22  1  0  0  0
 21 50  1  0  0  0
 21 51  1  0  0  0
 23 52  1  0  0  0
M  CHG  1  23   1
M  END
> <s_m_entry_id>
468

> <s_m_Source_Path>
/home/emilio/Dropbox/SAMPL9-eglab/mCD/ligsdfs

> <s_m_Source_File>
TDZNR1aspS.sdf

> <i_m_Source_File_Index>
1

> <r_epik_Ionization_Penalty>
  0.0017

> <r_epik_State_Penalty>
  0.0011

> <i_epik_Tot_Q>
1

> <s_m_job_name>
ligprep_4

> <i_f3d_flags>
0

$$$$
