@<TRIPOS>MOLECULE
LIG
52 55
SMALL
USER_CHARGES
@<TRIPOS>ATOM
      1 C1         26.5872  110.4431   45.4245 AA             0 LIG     -0.151259
      2 C2         27.8458  110.0858   45.9488 AB             0 LIG     -0.151259
      3 C3         26.5004  111.3225   44.3278 AD             0 LIG     -0.219304
      4 C4         29.0196  110.6217   45.3823 AE             0 LIG     -0.194592
      5 C5         30.6553  114.8404   42.9762 AF             0 LIG     -0.194592
      6 C6         30.1419  116.1013   42.5218 AH             0 LIG     -0.194592
      7 C7         27.9775  115.0720   42.0577 AI             0 LIG     -0.277127
      8 C8         27.6736  111.8469   43.7414 AJ             0 LIG     0.085655
      9 C9         28.4590  113.8291   42.5347 AK             0 LIG     0.085655
     10 C10        28.9330  111.5120   44.2962 AN             0 LIG     0.112307
     11 C11        29.7920  113.7355   42.9941 AO             0 LIG     0.112307
     12 C12        28.8047  116.2089   42.0838 AP             0 LIG     0.162844
     13 C13        24.3305  110.4537   38.3504 AQ             0 LIG     -0.032521
     14 C14        24.2430  108.9305   38.3813 AV             0 LIG     -0.034488
     15 C15        25.1526  110.9535   39.5427 AW             0 LIG     -0.055761
     16 C16        25.6525  108.3275   38.4055 AX             0 LIG     -0.006430
     17 C17        26.5654  110.3089   39.6338 AY             1 LIG     0.133288
     18 C18        27.7512  108.0922   39.6472 AZ             0 LIG     -0.176010
     19 C19        28.7210  118.9504   42.8585 BB             0 LIG     -0.159669
     20 C20        27.3840  110.8070   40.8829 BC             0 LIG     -0.036260
     21 C21        26.8790  112.1340   41.5158 BD             0 LIG     0.036576
     22 N1         27.6054  112.7145   42.6347 BF             0 LIG     -0.187743
     23 N2         26.4504  108.8120   39.5697 BG             2 LIG     -0.192054
     24 S1         30.4191  112.2184   43.6463 BH             0 LIG     -0.197945
     25 S2         28.1491  117.7703   41.6007 BJ             0 LIG     -0.259338
     26 H1         25.6870  110.0455   45.8709 BK             0 LIG     0.162335
     27 H2         27.9137  109.4152   46.7927 BL             0 LIG     0.162335
     28 H3         25.5320  111.6149   43.9474 BM             0 LIG     0.137375
     29 H4         29.9855  110.3590   45.7888 BN             0 LIG     0.176356
     30 H5         31.6586  114.7795   43.3149 BO             0 LIG     0.176356
     31 H6         30.7884  116.9662   42.5274 BP             0 LIG     0.176356
     32 H7         26.9525  115.1726   41.7349 BQ             0 LIG     0.141006
     33 H8         24.7728  110.7849   37.4091 BS             0 LIG     0.046484
     34 H9         23.3274  110.8837   38.3782 BT             0 LIG     0.046484
     35 H10        23.6706  108.6032   39.2510 BU             0 LIG     0.051372
     36 H11        23.6926  108.5701   37.5091 BV             0 LIG     0.051372
     37 H12        25.2308  112.0395   39.4459 BW             0 LIG     0.048966
     38 H13        24.5888  110.7612   40.4593 BX             0 LIG     0.048966
     39 H14        25.5597  107.2422   38.4450 BY             0 LIG     0.095743
     40 H15        26.1695  108.5553   37.4710 BZ             0 LIG     0.095743
     41 H16        27.1129  110.6341   38.7463 CB             0 LIG     0.086415
     42 H17        28.4353  108.4170   38.8590 CI             0 LIG     0.129026
     43 H18        27.5995  107.0148   39.5334 CJ             0 LIG     0.129026
     44 H19        28.2397  108.2353   40.6129 CK             0 LIG     0.129026
     45 H20        28.2260  119.9138   42.7275 CM             0 LIG     0.110256
     46 H21        29.7972  119.1085   42.7849 CN             0 LIG     0.110256
     47 H22        28.4915  118.5823   43.8598 CT             0 LIG     0.110256
     48 H23        27.3932  110.0534   41.6703 CW             0 LIG     0.037623
     49 H24        28.4315  110.9439   40.5979 DA             0 LIG     0.037623
     50 H25        26.8853  112.8785   40.7581 DB             0 LIG     0.084613
     51 H26        25.8793  111.9730   41.8614 DC             0 LIG     0.084613
     52 H27        25.9243  108.5380   40.3888 DD             0 LIG     0.326325
@<TRIPOS>BOND
        1  1  2  2
        2  1  3  1
        3  1  26  1
        4  2  4  1
        5  2  27  1
        6  3  8  2
        7  3  28  1
        8  4  10  2
        9  4  29  1
        10  5  6  1
        11  5  11  2
        12  5  30  1
        13  6  12  2
        14  6  31  1
        15  7  9  2
        16  7  12  1
        17  7  32  1
        18  8  10  1
        19  8  22  1
        20  9  11  1
        21  9  22  1
        22  10  24  1
        23  11  24  1
        24  12  25  1
        25  13  14  1
        26  13  15  1
        27  13  33  1
        28  13  34  1
        29  14  16  1
        30  14  35  1
        31  14  36  1
        32  15  17  1
        33  15  37  1
        34  15  38  1
        35  16  23  1
        36  16  39  1
        37  16  40  1
        38  17  20  1
        39  17  23  1
        40  17  41  1
        41  18  23  1
        42  18  42  1
        43  18  43  1
        44  18  44  1
        45  19  25  1
        46  19  45  1
        47  19  46  1
        48  19  47  1
        49  20  21  1
        50  20  48  1
        51  20  49  1
        52  21  22  1
        53  21  50  1
        54  21  51  1
        55  23  52  1
@<TRIPOS>SUBSTRUCTURE
       1 LIG             1 RESIDUE    0 **** ROOT      0

