@<TRIPOS>MOLECULE
LIG
50 53
SMALL
USER_CHARGES
@<TRIPOS>ATOM
      1 C1         26.6900  110.0414   45.1322 AA             0 LIG     -0.146946
      2 C2         27.9533  109.7425   45.6710 AB             0 LIG     -0.146946
      3 C3         26.5661  111.0143   44.1218 AD             0 LIG     -0.213882
      4 C4         29.0898  110.4198   45.1975 AE             0 LIG     -0.189563
      5 C5         30.6393  114.8476   43.0055 AF             0 LIG     -0.189563
      6 C6         30.1486  116.1003   42.5300 AH             0 LIG     -0.186283
      7 C7         27.9774  115.0836   42.1038 AI             0 LIG     -0.267664
      8 C8         27.7002  111.7073   43.6298 AJ             0 LIG     0.094519
      9 C9         28.4397  113.8271   42.5676 AK             0 LIG     0.094519
     10 C10        28.9677  111.3996   44.1920 AN             0 LIG     0.116195
     11 C11        29.7786  113.7370   43.0241 AO             0 LIG     0.116195
     12 C12        28.8133  116.2157   42.0848 AP             0 LIG     -0.069395
     13 C13        26.3038  109.9592   36.9586 AQ             0 LIG     -0.041121
     14 C14        26.8315  108.3967   38.7552 AV             0 LIG     -0.041121
     15 C15        26.8708  108.9537   35.9381 AW             0 LIG     0.063286
     16 C16        27.3878  107.4138   37.7054 AX             0 LIG     0.063286
     17 C17        27.3316  110.9418   40.5530 AY             0 LIG     -0.016690
     18 C18        26.8490  112.1311   41.4654 AZ             0 LIG     0.028631
     19 C19        26.5378  110.8643   39.2351 BB             0 LIG     -0.059139
     20 N1         27.5846  112.7021   42.6311 BC             0 LIG     -0.187888
     21 N2         26.9759  109.8053   38.2779 BD             0 LIG     -0.035261
     22 N3         26.7024  107.5892   36.4310 BF             0 LIG     -0.795699
     23 F1         27.1806  117.8634   42.2924 BG             0 LIG     -0.251326
     24 F2         27.9101  117.3977   40.3069 BH             0 LIG     -0.251326
     25 F3         29.1491  118.5263   41.6809 BJ             0 LIG     -0.251326
     26 S1         30.4317  112.2235   43.6489 BK             0 LIG     -0.162784
     27 C20        28.2605  117.5389   41.5845 BL             0 LIG     0.697269
     28 H1         25.8124  109.5377   45.5125 BM             0 LIG     0.171877
     29 H2         28.0475  109.0085   46.4589 BN             0 LIG     0.171877
     30 H3         25.5737  111.2425   43.7686 BO             0 LIG     0.150837
     31 H4         30.0583  110.2023   45.6244 BP             0 LIG     0.186066
     32 H5         31.6445  114.7853   43.3565 BQ             0 LIG     0.186066
     33 H6         30.7990  116.9636   42.5280 BS             0 LIG     0.189607
     34 H7         26.9546  115.2216   41.7919 BT             0 LIG     0.149674
     35 H8         26.4540  110.9734   36.5790 BU             0 LIG     0.093433
     36 H9         25.2237  109.8205   37.0643 BV             0 LIG     0.093433
     37 H10        25.7872  108.1663   38.9774 BW             0 LIG     0.093433
     38 H11        27.3905  108.2254   39.6743 BX             0 LIG     0.093433
     39 H12        26.3527  109.0520   34.9815 BY             0 LIG     0.105981
     40 H13        27.9278  109.1490   35.7413 BZ             0 LIG     0.105981
     41 H14        28.4618  107.5560   37.5685 CB             0 LIG     0.105981
     42 H15        27.2597  106.3814   38.0400 CI             0 LIG     0.105981
     43 H16        28.3991  110.9976   40.3770 CJ             0 LIG     0.044237
     44 H17        27.2336  109.9401   40.9213 CK             0 LIG     0.044237
     45 H18        26.5541  112.8373   40.7055 CM             0 LIG     0.093748
     46 H19        25.9884  111.8432   41.9844 CN             0 LIG     0.093748
     47 H20        25.4864  110.7127   39.4571 CT             0 LIG     0.094892
     48 H21        26.5916  111.8340   38.7520 CW             0 LIG     0.094892
     49 H22        25.7367  107.2748   36.4403 DA             0 LIG     0.419755
     50 H23        27.9592  109.9434   38.1041 DB             0 LIG     0.340852
@<TRIPOS>BOND
        1  1  2  2
        2  1  3  1
        3  1  28  1
        4  2  4  1
        5  2  29  1
        6  3  8  2
        7  3  30  1
        8  4  10  2
        9  4  31  1
        10  5  6  1
        11  5  11  2
        12  5  32  1
        13  6  12  2
        14  6  33  1
        15  7  9  2
        16  7  12  1
        17  7  34  1
        18  8  10  1
        19  8  20  1
        20  9  11  1
        21  9  20  1
        22  10  26  1
        23  11  26  1
        24  12  27  1
        25  13  15  1
        26  13  21  1
        27  13  35  1
        28  13  36  1
        29  14  16  1
        30  14  21  1
        31  14  37  1
        32  14  38  1
        33  15  22  1
        34  15  39  1
        35  15  40  1
        36  16  22  1
        37  16  41  1
        38  16  42  1
        39  17  18  1
        40  17  19  1
        41  17  43  1
        42  17  44  1
        43  18  20  1
        44  18  45  1
        45  18  46  1
        46  19  21  1
        47  19  47  1
        48  19  48  1
        49  21  50  1
        50  22  49  1
        51  23  27  1
        52  24  27  1
        53  25  27  1
@<TRIPOS>SUBSTRUCTURE
       1 LIG             1 RESIDUE    0 **** ROOT      0

