TFP1bspS
                    3D
 Schrodinger Suite 2019-4.
 50 53  0  0  1  0            999 V2000
   26.6900  110.0414   45.1322 C   0  0  0  0  0  0
   27.9533  109.7425   45.6710 C   0  0  0  0  0  0
   26.5661  111.0143   44.1218 C   0  0  0  0  0  0
   29.0898  110.4198   45.1975 C   0  0  0  0  0  0
   30.6393  114.8476   43.0055 C   0  0  0  0  0  0
   30.1486  116.1003   42.5300 C   0  0  0  0  0  0
   27.9774  115.0836   42.1038 C   0  0  0  0  0  0
   27.7002  111.7073   43.6298 C   0  0  0  0  0  0
   28.4397  113.8271   42.5676 C   0  0  0  0  0  0
   28.9677  111.3996   44.1920 C   0  0  0  0  0  0
   29.7786  113.7370   43.0241 C   0  0  0  0  0  0
   28.8133  116.2157   42.0848 C   0  0  0  0  0  0
   26.3038  109.9592   36.9586 C   0  0  0  0  0  0
   26.8315  108.3967   38.7552 C   0  0  0  0  0  0
   26.8708  108.9537   35.9381 C   0  0  0  0  0  0
   27.3878  107.4138   37.7054 C   0  0  0  0  0  0
   27.3316  110.9418   40.5530 C   0  0  0  0  0  0
   26.8490  112.1311   41.4654 C   0  0  0  0  0  0
   26.5378  110.8643   39.2351 C   0  0  0  0  0  0
   27.5846  112.7021   42.6311 N   0  0  0  0  0  0
   26.9759  109.8053   38.2779 N   0  3  0  0  0  0
   26.7024  107.5892   36.4310 N   0  0  0  0  0  0
   27.1806  117.8634   42.2924 F   0  0  0  0  0  0
   27.9101  117.3977   40.3069 F   0  0  0  0  0  0
   29.1491  118.5263   41.6809 F   0  0  0  0  0  0
   30.4317  112.2235   43.6489 S   0  0  0  0  0  0
   28.2605  117.5389   41.5845 C   0  0  0  0  0  0
   25.8124  109.5377   45.5125 H   0  0  0  0  0  0
   28.0475  109.0085   46.4589 H   0  0  0  0  0  0
   25.5737  111.2425   43.7686 H   0  0  0  0  0  0
   30.0583  110.2023   45.6244 H   0  0  0  0  0  0
   31.6445  114.7853   43.3565 H   0  0  0  0  0  0
   30.7990  116.9636   42.5280 H   0  0  0  0  0  0
   26.9546  115.2216   41.7919 H   0  0  0  0  0  0
   26.4540  110.9734   36.5790 H   0  0  0  0  0  0
   25.2237  109.8205   37.0643 H   0  0  0  0  0  0
   25.7872  108.1663   38.9774 H   0  0  0  0  0  0
   27.3905  108.2254   39.6743 H   0  0  0  0  0  0
   26.3527  109.0520   34.9815 H   0  0  0  0  0  0
   27.9278  109.1490   35.7413 H   0  0  0  0  0  0
   28.4618  107.5560   37.5685 H   0  0  0  0  0  0
   27.2597  106.3814   38.0400 H   0  0  0  0  0  0
   28.3991  110.9976   40.3770 H   0  0  0  0  0  0
   27.2336  109.9401   40.9213 H   0  0  0  0  0  0
   26.5541  112.8373   40.7055 H   0  0  0  0  0  0
   25.9884  111.8432   41.9844 H   0  0  0  0  0  0
   25.4864  110.7127   39.4571 H   0  0  0  0  0  0
   26.5916  111.8340   38.7520 H   0  0  0  0  0  0
   25.7367  107.2748   36.4403 H   0  0  0  0  0  0
   27.9592  109.9434   38.1041 H   0  0  0  0  0  0
  1  2  2  0  0  0
  1  3  1  0  0  0
  1 28  1  0  0  0
  2  4  1  0  0  0
  2 29  1  0  0  0
  3  8  2  0  0  0
  3 30  1  0  0  0
  4 10  2  0  0  0
  4 31  1  0  0  0
  5  6  2  0  0  0
  5 11  1  0  0  0
  5 32  1  0  0  0
  6 12  1  0  0  0
  6 33  1  0  0  0
  7  9  1  0  0  0
  7 12  2  0  0  0
  7 34  1  0  0  0
  8 10  1  0  0  0
  8 20  1  0  0  0
  9 11  2  0  0  0
  9 20  1  0  0  0
 10 26  1  0  0  0
 11 26  1  0  0  0
 12 27  1  0  0  0
 13 15  1  0  0  0
 13 21  1  0  0  0
 13 35  1  0  0  0
 13 36  1  0  0  0
 14 16  1  0  0  0
 14 21  1  0  0  0
 14 37  1  0  0  0
 14 38  1  0  0  0
 15 22  1  0  0  0
 15 39  1  0  0  0
 15 40  1  0  0  0
 16 22  1  0  0  0
 16 41  1  0  0  0
 16 42  1  0  0  0
 17 18  1  0  0  0
 17 19  1  0  0  0
 17 43  1  0  0  0
 17 44  1  0  0  0
 18 20  1  0  0  0
 18 45  1  0  0  0
 18 46  1  0  0  0
 19 21  1  0  0  0
 19 47  1  0  0  0
 19 48  1  0  0  0
 21 50  1  0  0  0
 22 49  1  0  0  0
 23 27  1  0  0  0
 24 27  1  0  0  0
 25 27  1  0  0  0
M  CHG  1  21   1
M  END
> <s_m_entry_id>
473

> <s_m_Source_Path>
/home/emilio/Dropbox/SAMPL9-eglab/mCD/ligsdfs

> <s_m_Source_File>
TFP1bspS.sdf

> <i_m_Source_File_Index>
1

> <r_epik_Ionization_Penalty>
  0.1004

> <r_epik_State_Penalty>
  1.6660

> <i_epik_Tot_Q>
1

> <s_m_job_name>
ligprep_4

> <i_f3d_flags>
0

$$$$
