@<TRIPOS>MOLECULE
LIG
50 53
SMALL
USER_CHARGES
@<TRIPOS>ATOM
      1 C1         26.5950  110.4821   45.4795 AA             0 LIG     -0.148793
      2 C2         27.8474  110.2231   46.0652 AB             0 LIG     -0.148793
      3 C3         26.5092  111.2639   44.3105 AD             0 LIG     -0.214109
      4 C4         29.0163  110.7397   45.4759 AE             0 LIG     -0.192215
      5 C5         30.6684  114.8317   42.9487 AF             0 LIG     -0.192215
      6 C6         30.1558  116.0993   42.4974 AH             0 LIG     -0.190417
      7 C7         27.9809  115.0774   42.0903 AI             0 LIG     -0.264320
      8 C8         27.6753  111.8092   43.7181 AJ             0 LIG     0.095370
      9 C9         28.4594  113.8209   42.5338 AK             0 LIG     0.095370
     10 C10        28.9324  111.5337   44.3158 AN             0 LIG     0.116137
     11 C11        29.7984  113.7290   42.9764 AO             0 LIG     0.116137
     12 C12        28.8084  116.2150   42.0835 AP             0 LIG     -0.071581
     13 C13        25.6095  108.6018   38.2870 AQ             0 LIG     0.037365
     14 C14        26.9277  107.7320   40.0856 AV             0 LIG     0.037365
     15 C15        26.0827  107.4697   37.3518 AW             0 LIG     0.086222
     16 C16        27.4268  106.5764   39.1906 AX             0 LIG     0.086222
     17 C17        27.4502  110.7698   40.7930 AY             0 LIG     0.011333
     18 C18        26.9531  112.0858   41.4750 AZ             0 LIG     0.026484
     19 C19        26.2756  110.0840   40.0523 BB             0 LIG     0.037611
     20 N1         27.6006  112.7052   42.6354 BC             0 LIG     -0.178062
     21 N2         26.6704  108.9150   39.2527 BD             0 LIG     -0.528710
     22 N3         26.4287  106.2666   38.1415 BF             0 LIG     -0.527743
     23 F1         27.6636  117.4445   40.4704 BG             0 LIG     -0.255693
     24 F2         29.1395  118.5219   41.6314 BH             0 LIG     -0.255693
     25 F3         27.2800  117.9062   42.5510 BJ             0 LIG     -0.255693
     26 S1         30.4196  112.2209   43.6458 BK             0 LIG     -0.174420
     27 C20        28.2207  117.5572   41.6748 BL             0 LIG     0.695255
     28 H1         25.6944  110.1117   45.9522 BM             0 LIG     0.167075
     29 H2         27.9082  109.6497   46.9792 BN             0 LIG     0.167075
     30 H3         25.5307  111.4898   43.9184 BO             0 LIG     0.157041
     31 H4         29.9734  110.5657   45.9427 BP             0 LIG     0.180382
     32 H5         31.6685  114.7809   43.2881 BQ             0 LIG     0.180382
     33 H6         30.7951  116.9716   42.5092 BS             0 LIG     0.183084
     34 H7         26.9461  115.2088   41.8102 BT             0 LIG     0.171935
     35 H8         25.3858  109.4846   37.6835 BU             0 LIG     0.086347
     36 H9         24.6829  108.3289   38.7989 BV             0 LIG     0.086347
     37 H10        26.0300  107.4401   40.6351 BW             0 LIG     0.086347
     38 H11        27.6917  107.9496   40.8322 BX             0 LIG     0.086347
     39 H12        25.3013  107.2211   36.6306 BY             0 LIG     0.119217
     40 H13        26.9519  107.7963   36.7761 BZ             0 LIG     0.119217
     41 H14        28.3773  106.8463   38.7253 CB             0 LIG     0.119217
     42 H15        27.6122  105.6832   39.7902 CI             0 LIG     0.119217
     43 H16        28.2476  111.0098   40.0908 CJ             0 LIG     0.035265
     44 H17        27.8707  110.0340   41.4641 CK             0 LIG     0.035265
     45 H18        26.8238  112.7727   40.6585 CM             0 LIG     0.085093
     46 H19        26.0216  111.9221   41.9290 CN             0 LIG     0.085093
     47 H20        25.4965  109.8015   40.7613 CT             0 LIG     0.068063
     48 H21        25.8230  110.8276   39.3964 CW             0 LIG     0.068063
     49 H22        25.5900  105.9224   38.5859 DA             0 LIG     0.375757
     50 H23        26.7964  105.5553   37.5254 DB             0 LIG     0.375757
@<TRIPOS>BOND
        1  1  2  2
        2  1  3  1
        3  1  28  1
        4  2  4  1
        5  2  29  1
        6  3  8  2
        7  3  30  1
        8  4  10  2
        9  4  31  1
        10  5  6  1
        11  5  11  2
        12  5  32  1
        13  6  12  2
        14  6  33  1
        15  7  9  2
        16  7  12  1
        17  7  34  1
        18  8  10  1
        19  8  20  1
        20  9  11  1
        21  9  20  1
        22  10  26  1
        23  11  26  1
        24  12  27  1
        25  13  15  1
        26  13  21  1
        27  13  35  1
        28  13  36  1
        29  14  16  1
        30  14  21  1
        31  14  37  1
        32  14  38  1
        33  15  22  1
        34  15  39  1
        35  15  40  1
        36  16  22  1
        37  16  41  1
        38  16  42  1
        39  17  18  1
        40  17  19  1
        41  17  43  1
        42  17  44  1
        43  18  20  1
        44  18  45  1
        45  18  46  1
        46  19  21  1
        47  19  47  1
        48  19  48  1
        49  22  49  1
        50  22  50  1
        51  23  27  1
        52  24  27  1
        53  25  27  1
@<TRIPOS>SUBSTRUCTURE
       1 LIG             1 RESIDUE    0 **** ROOT      0

