bCD
                    3D

147154  0  0  1  0            999 V2000
   21.1961  111.8987   50.9295  C    0  0  2  0  0  0
   19.6987  111.3976   50.7516  C    0  0  1  0  0  0
   19.1392  111.9008   49.4335  C    0  0  2  0  0  0
   19.2651  113.4666   49.2958  C    0  0  1  0  0  0
   20.6913  113.9271   49.6465  C    0  0  1  0  0  0
   20.6720  115.5129   49.7671  C    0  0  0  0  0  0
   24.3333  108.0964   48.5895  C    0  0  2  0  0  0
   22.7817  107.8394   48.6331  C    0  0  1  0  0  0
   22.1832  109.2030   48.6914  C    0  0  2  0  0  0
   22.5312  110.0730   49.9426  C    0  0  1  0  0  0
   24.0846  110.1573   50.0572  C    0  0  1  0  0  0
   24.5747  110.7026   51.4615  C    0  0  0  0  0  0
   27.1656  108.1328   44.0702  C    0  0  2  0  0  0
   26.3221  106.9103   44.4319  C    0  0  1  0  0  0
   25.2053  107.3868   45.3938  C    0  0  2  0  0  0
   25.7866  108.0886   46.6813  C    0  0  1  0  0  0
   26.7079  109.3037   46.1800  C    0  0  1  0  0  0
   27.4597  109.8514   47.3719  C    0  0  0  0  0  0
   26.1189  110.9886   39.6277  C    0  0  2  0  0  0
   26.1048  109.3733   39.5586  C    0  0  1  0  0  0
   25.8415  108.8407   41.0041  C    0  0  2  0  0  0
   26.8059  109.4809   42.0531  C    0  0  1  0  0  0
   26.7440  111.0215   42.0173  C    0  0  1  0  0  0
   27.5971  111.8271   43.0300  C    0  0  0  0  0  0
   22.0047  114.2151   38.7101  C    0  0  2  0  0  0
   21.9205  112.9328   37.8404  C    0  0  1  0  0  0
   22.8419  111.7882   38.6034  C    0  0  2  0  0  0
   24.2636  112.2754   39.0189  C    0  0  1  0  0  0
   24.1465  113.7436   39.6652  C    0  0  1  0  0  0
   25.5798  114.4009   39.6907  C    0  0  0  0  0  0
   18.0095  115.0668   42.2680  C    0  0  2  0  0  0
   17.8763  113.7496   41.4000  C    0  0  1  0  0  0
   19.2677  113.2581   40.8718  C    0  0  2  0  0  0
   20.0693  114.4991   40.2232  C    0  0  1  0  0  0
   20.1233  115.6744   41.2297  C    0  0  1  0  0  0
   20.6968  116.9154   40.6317  C    0  0  0  0  0  0
   17.7576  114.6949   47.7386  C    0  0  1  0  0  0
   16.6671  114.0835   46.8329  C    0  0  1  0  0  0
   17.2973  113.7651   45.4446  C    0  0  2  0  0  0
   17.9229  115.1097   44.7944  C    0  0  1  0  0  0
   18.8897  115.8405   45.8147  C    0  0  1  0  0  0
   19.3374  117.2640   45.4401  C    0  0  0  0  0  0
   19.6612  109.9159   50.8490  O    0  0  0  0  0  0
   17.8058  111.5551   49.1735  O    0  0  0  0  0  0
   18.8592  113.7666   47.9146  O    0  0  0  0  0  0
   21.2073  113.2990   50.9146  O    0  0  0  0  0  0
   21.9653  116.0370   50.1212  O    0  0  0  0  0  0
   22.2257  107.1220   47.5251  O    0  0  0  0  0  0
   20.7755  109.0095   48.6047  O    0  0  0  0  0  0
   21.9716  111.3971   49.8373  O    0  0  0  0  0  0
   24.7901  108.9092   49.7515  O    0  0  0  0  0  0
   24.0904  109.8336   52.4963  O    0  0  0  0  0  0
   25.7622  106.2453   43.2950  O    0  0  0  0  0  0
   24.2894  106.3291   45.8285  O    0  0  0  0  0  0
   24.6241  108.7224   47.3146  O    0  0  0  0  0  0
   27.6807  108.7909   45.2638  O    0  0  0  0  0  0
   28.1656  111.0013   46.8809  O    0  0  0  0  0  0
   24.9762  108.8972   38.6755  O    0  0  0  0  0  0
   26.0410  107.4158   41.0145  O    0  0  0  0  0  0
   26.3765  109.0773   43.3417  O    0  0  0  0  0  0
   26.9947  111.4845   40.6692  O    0  0  0  0  0  0
   27.4292  113.2602   42.8094  O    0  0  0  0  0  0
   20.5504  112.5310   37.7362  O    0  0  0  0  0  0
   22.9787  110.6067   37.8407  O    0  0  0  0  0  0
   24.8523  111.3731   39.9512  O    0  0  0  0  0  0
   23.3046  114.6182   39.0160  O    0  0  0  0  0  0
   25.4709  115.7625   40.0438  O    0  0  0  0  0  0
   17.0818  112.7171   42.0911  O    0  0  0  0  0  0
   19.0982  112.1577   39.9357  O    0  0  0  0  0  0
   21.3821  114.0346   39.9558  O    0  0  0  0  0  0
   18.7461  116.0433   41.6224  O    0  0  0  0  0  0
   20.0254  117.2837   39.4136  O    0  0  0  0  0  0
   16.2395  112.8172   47.3153  O    0  0  0  0  0  0
   16.2327  113.3223   44.5568  O    0  0  0  0  0  0
   18.6166  114.7334   43.5334  O    0  0  0  0  0  0
   18.3316  115.9394   47.1847  O    0  0  0  0  0  0
   18.2045  118.1212   45.0221  O    0  0  0  0  0  0
   24.2634  111.7530   51.5970  H    0  0  0  0  0  0
   25.7196  110.7155   51.5498  H    0  0  0  0  0  0
   19.9806  109.5808   49.9803  H    0  0  0  0  0  0
   17.6573  110.5691   49.2310  H    0  0  0  0  0  0
   21.9604  116.0785   51.1446  H    0  0  0  0  0  0
   22.9737  106.8933   46.8207  H    0  0  0  0  0  0
   20.6978  108.1411   48.1113  H    0  0  0  0  0  0
   24.4058  108.9134   52.2631  H    0  0  0  0  0  0
   25.8622  107.0333   42.6575  H    0  0  0  0  0  0
   24.6499  105.4302   45.6181  H    0  0  0  0  0  0
   29.1060  110.7212   46.7291  H    0  0  0  0  0  0
   24.3435  109.6656   38.5944  H    0  0  0  0  0  0
   25.8597  107.0904   40.0719  H    0  0  0  0  0  0
   27.7469  113.4486   41.8701  H    0  0  0  0  0  0
   20.1331  112.3893   38.6539  H    0  0  0  0  0  0
   23.1005  110.8587   36.8783  H    0  0  0  0  0  0
   24.4956  115.9327   39.9853  H    0  0  0  0  0  0
   16.9486  113.0311   43.0264  H    0  0  0  0  0  0
   19.3527  111.3251   40.4060  H    0  0  0  0  0  0
   19.0669  116.9058   39.5177  H    0  0  0  0  0  0
   17.0074  112.4329   47.8253  H    0  0  0  0  0  0
   15.4243  113.5656   45.0609  H    0  0  0  0  0  0
   18.6192  118.7379   44.3604  H    0  0  0  0  0  0
   21.5653  111.5454   51.9406  H    0  0  0  0  0  0
   19.1964  111.7520   51.6406  H    0  0  0  0  0  0
   19.6769  111.4224   48.6606  H    0  0  0  0  0  0
   18.6271  114.0876   49.9615  H    0  0  0  0  0  0
   21.4460  113.6248   48.8224  H    0  0  0  0  0  0
   20.3782  115.8905   48.8433  H    0  0  0  0  0  0
   19.9287  115.8477   50.5204  H    0  0  0  0  0  0
   24.7515  107.0461   48.6255  H    0  0  0  0  0  0
   22.6838  107.2194   49.5852  H    0  0  0  0  0  0
   22.4947  109.7782   47.8594  H    0  0  0  0  0  0
   22.0803  109.6035   50.8219  H    0  0  0  0  0  0
   24.3318  110.8915   49.2794  H    0  0  0  0  0  0
   27.9789  107.7843   43.4713  H    0  0  0  0  0  0
   26.9890  106.2324   45.0525  H    0  0  0  0  0  0
   24.6377  108.1342   44.8264  H    0  0  0  0  0  0
   26.3109  107.3724   47.3566  H    0  0  0  0  0  0
   26.1334  110.0359   45.7431  H    0  0  0  0  0  0
   28.2683  109.1564   47.6493  H    0  0  0  0  0  0
   26.7283  110.1536   48.1120  H    0  0  0  0  0  0
   26.4418  111.3465   38.6467  H    0  0  0  0  0  0
   27.0713  109.0172   39.1316  H    0  0  0  0  0  0
   24.8154  109.2035   41.1766  H    0  0  0  0  0  0
   27.8303  109.1388   41.7365  H    0  0  0  0  0  0
   25.6983  111.2661   42.2136  H    0  0  0  0  0  0
   27.2074  111.5866   44.0588  H    0  0  0  0  0  0
   28.6717  111.5847   43.0170  H    0  0  0  0  0  0
   21.5432  115.0399   38.2594  H    0  0  0  0  0  0
   22.2915  113.0104   36.7835  H    0  0  0  0  0  0
   22.3367  111.5450   39.4967  H    0  0  0  0  0  0
   24.9584  112.4062   38.1972  H    0  0  0  0  0  0
   23.7624  113.6101   40.7270  H    0  0  0  0  0  0
   26.1617  113.8596   40.3923  H    0  0  0  0  0  0
   26.0112  114.2431   38.6451  H    0  0  0  0  0  0
   17.0019  115.5246   42.4419  H    0  0  0  0  0  0
   17.2129  114.0333   40.5723  H    0  0  0  0  0  0
   19.8790  112.9944   41.8172  H    0  0  0  0  0  0
   19.5871  114.8287   39.3325  H    0  0  0  0  0  0
   20.5714  115.2517   42.1681  H    0  0  0  0  0  0
   20.5661  117.7984   41.3338  H    0  0  0  0  0  0
   21.7881  116.7360   40.3821  H    0  0  0  0  0  0
   17.2948  114.8921   48.7117  H    0  0  0  0  0  0
   15.8562  114.8137   46.6972  H    0  0  0  0  0  0
   18.0331  112.9852   45.6765  H    0  0  0  0  0  0
   17.0666  115.7522   44.5547  H    0  0  0  0  0  0
   19.8070  115.2480   45.9188  H    0  0  0  0  0  0
   20.0053  117.1547   44.5768  H    0  0  0  0  0  0
   19.8326  117.8375   46.2335  H    0  0  0  0  0  0
  1  2  1  0  0  0
  1 46  1  0  0  0
  1 50  1  0  0  0
  1101  1  0  0  0
  2  3  1  0  0  0
  2 43  1  0  0  0
  2102  1  0  0  0
  3  4  1  0  0  0
  3 44  1  0  0  0
  3103  1  0  0  0
  4  5  1  0  0  0
  4 45  1  0  0  0
  4104  1  0  0  0
  5  6  1  0  0  0
  5 46  1  0  0  0
  5105  1  0  0  0
  6 47  1  0  0  0
  6106  1  0  0  0
  6107  1  0  0  0
  7  8  1  0  0  0
  7 51  1  0  0  0
  7 55  1  0  0  0
  7108  1  0  0  0
  8  9  1  0  0  0
  8 48  1  0  0  0
  8109  1  0  0  0
  9 10  1  0  0  0
  9 49  1  0  0  0
  9110  1  0  0  0
 10 11  1  0  0  0
 10 50  1  0  0  0
 10111  1  0  0  0
 11 12  1  0  0  0
 11 51  1  0  0  0
 11112  1  0  0  0
 12 52  1  0  0  0
 12 78  1  0  0  0
 12 79  1  0  0  0
 13 14  1  0  0  0
 13 56  1  0  0  0
 13 60  1  0  0  0
 13113  1  0  0  0
 14 15  1  0  0  0
 14 53  1  0  0  0
 14114  1  0  0  0
 15 16  1  0  0  0
 15 54  1  0  0  0
 15115  1  0  0  0
 16 17  1  0  0  0
 16 55  1  0  0  0
 16116  1  0  0  0
 17 18  1  0  0  0
 17 56  1  0  0  0
 17117  1  0  0  0
 18 57  1  0  0  0
 18118  1  0  0  0
 18119  1  0  0  0
 19 20  1  0  0  0
 19 61  1  0  0  0
 19 65  1  0  0  0
 19120  1  0  0  0
 20 21  1  0  0  0
 20 58  1  0  0  0
 20121  1  0  0  0
 21 22  1  0  0  0
 21 59  1  0  0  0
 21122  1  0  0  0
 22 23  1  0  0  0
 22 60  1  0  0  0
 22123  1  0  0  0
 23 24  1  0  0  0
 23 61  1  0  0  0
 23124  1  0  0  0
 24 62  1  0  0  0
 24125  1  0  0  0
 24126  1  0  0  0
 25 26  1  0  0  0
 25 66  1  0  0  0
 25 70  1  0  0  0
 25127  1  0  0  0
 26 27  1  0  0  0
 26 63  1  0  0  0
 26128  1  0  0  0
 27 28  1  0  0  0
 27 64  1  0  0  0
 27129  1  0  0  0
 28 29  1  0  0  0
 28 65  1  0  0  0
 28130  1  0  0  0
 29 30  1  0  0  0
 29 66  1  0  0  0
 29131  1  0  0  0
 30 67  1  0  0  0
 30132  1  0  0  0
 30133  1  0  0  0
 31 32  1  0  0  0
 31 71  1  0  0  0
 31 75  1  0  0  0
 31134  1  0  0  0
 32 33  1  0  0  0
 32 68  1  0  0  0
 32135  1  0  0  0
 33 34  1  0  0  0
 33 69  1  0  0  0
 33136  1  0  0  0
 34 35  1  0  0  0
 34 70  1  0  0  0
 34137  1  0  0  0
 35 36  1  0  0  0
 35 71  1  0  0  0
 35138  1  0  0  0
 36 72  1  0  0  0
 36139  1  0  0  0
 36140  1  0  0  0
 37 38  1  0  0  0
 37 45  1  0  0  0
 37 76  1  0  0  0
 37141  1  0  0  0
 38 39  1  0  0  0
 38 73  1  0  0  0
 38142  1  0  0  0
 39 40  1  0  0  0
 39 74  1  0  0  0
 39143  1  0  0  0
 40 41  1  0  0  0
 40 75  1  0  0  0
 40144  1  0  0  0
 41 42  1  0  0  0
 41 76  1  0  0  0
 41145  1  0  0  0
 42 77  1  0  0  0
 42146  1  0  0  0
 42147  1  0  0  0
 43 80  1  0  0  0
 44 81  1  0  0  0
 47 82  1  0  0  0
 48 83  1  0  0  0
 49 84  1  0  0  0
 52 85  1  0  0  0
 53 86  1  0  0  0
 54 87  1  0  0  0
 57 88  1  0  0  0
 58 89  1  0  0  0
 59 90  1  0  0  0
 62 91  1  0  0  0
 63 92  1  0  0  0
 64 93  1  0  0  0
 67 94  1  0  0  0
 68 95  1  0  0  0
 69 96  1  0  0  0
 72 97  1  0  0  0
 73 98  1  0  0  0
 74 99  1  0  0  0
 77100  1  0  0  0
M  END
> <s_m_entry_id>
15

> <s_m_Source_Path>
/home/emilio/Dropbox/sims/SAMPL9/work/receptor

> <s_m_Source_File>
bCD.mol2

> <i_m_Source_File_Index>
1

$$$$

