@<TRIPOS>MOLECULE
LIG
189 196
SMALL
USER_CHARGES
@<TRIPOS>ATOM
      1 C1           10.975      5.501      1.308 aa            1 LIG        0.430935
      2 C2            9.906      5.181      0.265 ab            1 LIG        0.207656
      3 C3           10.478      4.258     -0.819 ad            1 LIG        0.188798
      4 C4           11.757      4.879     -1.391 ae            1 LIG        0.195488
      5 C5           12.764      5.152     -0.277 af            1 LIG        0.195488
      6 C6           13.949      5.967     -0.810 ah            1 LIG        0.166225
      7 C7           12.032      2.969      5.868 ai            1 LIG        0.430935
      8 C8           10.644      2.851      5.349 aj            1 LIG        0.207656
      9 C9           10.582      3.034      3.829 ak            1 LIG        0.188798
     10 C10          11.288      4.260      3.431 an            1 LIG        0.195488
     11 C11          12.723      4.231      3.955 ao            1 LIG        0.195488
     12 C12          13.618      5.427      3.625 ap            1 LIG        0.166225
     13 C13          15.437     -0.903      7.009 aq            1 LIG        0.430935
     14 C14          13.986     -1.333      6.971 av            1 LIG        0.207656
     15 C15          13.229     -0.412      6.009 aw            1 LIG        0.188798
     16 C16          13.420      0.837      6.460 ax            1 LIG        0.195488
     17 C17          14.904      1.396      6.570 ay            1 LIG        0.195488
     18 C18          15.121      2.708      7.213 az            1 LIG        0.166225
     19 C19          19.189     -2.627      3.669 bb            1 LIG        0.430935
     20 C20          18.386     -3.655      4.496 bc            1 LIG        0.207656
     21 C21          17.051     -3.029      4.869 bd            1 LIG        0.188798
     22 C22          17.277     -1.722      5.591 bf            1 LIG        0.195488
     23 C23          18.177     -0.801      4.771 bg            1 LIG        0.195488
     24 C24          18.610      0.440      5.611 bh            1 LIG        0.166225
     25 C25          19.009     -2.324     -1.639 bj            1 LIG        0.430935
     26 C26          18.626     -3.644     -0.974 bk            1 LIG        0.207656
     27 C27          18.047     -3.406      0.405 bl            1 LIG        0.188798
     28 C28          19.039     -2.628      1.238 bm            1 LIG        0.195488
     29 C29          19.375     -1.335      0.515 bn            1 LIG        0.195488
     30 C30          20.439     -0.479      1.245 bo            1 LIG        0.166225
     31 C31          16.071      0.636     -4.915 bp            1 LIG        0.430935
     32 C32          15.937     -0.889     -4.972 bq            1 LIG        0.207656
     33 C33          16.248     -1.483     -3.606 bs            1 LIG        0.188798
     34 C34          17.628     -1.041     -3.173 bt            1 LIG        0.195488
     35 C35          17.698      0.490     -3.141 bu            1 LIG        0.195488
     36 C36          19.079      1.036     -2.821 bv            1 LIG        0.166225
     37 C37          12.444      4.271     -3.634 bw            1 LIG        0.430935
     38 C38          11.970      3.092     -4.493 bx            1 LIG        0.207656
     39 C39          12.864      1.872     -4.258 by            1 LIG        0.188798
     40 C40          14.311      2.253     -4.501 bz            1 LIG        0.195488
     41 C41          14.734      3.488     -3.711 cb            1 LIG        0.195488
     42 C42          16.080      4.043     -4.152 ci            1 LIG        0.166225
     43 O1            8.783      4.575      0.907 cj            1 LIG       -0.735959
     44 O2            9.530      4.121     -1.882 ck            1 LIG       -0.511627
     45 C43           9.292      5.422     -2.419 cm            1 LIG        0.074802
     46 O3           12.299      3.883     -2.279 cn            1 LIG       -0.542414
     47 O4           12.119      6.046      0.689 ct            1 LIG       -0.542414
     48 O5           14.910      6.073      0.207 cw            1 LIG       -0.511627
     49 C44          14.979      7.446      0.593 da            1 LIG        0.074802
     50 O6           10.118      1.562      5.724 db            1 LIG       -0.735959
     51 O7            9.183      3.067      3.419 dc            1 LIG       -0.511627
     52 C45           8.570      4.184      4.064 dd            1 LIG        0.074802
     53 O8           11.306      4.287      1.980 de            1 LIG       -0.542414
     54 O9           12.652      4.157      5.407 df            1 LIG       -0.542414
     55 O10          14.820      5.191      3.920 dg            1 LIG       -0.511627
     56 C46          15.475      6.446      4.103 dh            1 LIG        0.074802
     57 O11          13.865     -2.702      6.565 di            1 LIG       -0.735959
     58 O12          11.826     -0.713      6.034 dj            1 LIG       -0.511627
     59 C47          11.369     -0.531      7.375 dk            1 LIG        0.074802
     60 O13          12.786      1.828      5.432 dl            1 LIG       -0.542414
     61 O14          15.560      0.428      7.430 dm            1 LIG       -0.542414
     62 O15          14.494      2.740      8.498 dn            1 LIG       -0.511627
     63 C48          15.389      3.392      9.400 do            1 LIG        0.074802
     64 O16          18.177     -4.847      3.743 dp            1 LIG       -0.735959
     65 O17          16.293     -3.928      5.696 dq            1 LIG       -0.511627
     66 C49          17.056     -4.176      6.877 dr            1 LIG        0.074802
     67 O18          15.981     -1.093      5.714 ds            1 LIG       -0.542414
     68 O19          19.379     -1.466      4.416 dt            1 LIG       -0.542414
     69 O20          19.351      1.331      4.816 dv            1 LIG       -0.511627
     70 C50          20.615      1.527      5.451 dw            1 LIG        0.074802
     71 O21          17.691     -4.343     -1.829 dx            1 LIG       -0.735959
     72 O22          17.745     -4.662      1.013 dz            1 LIG       -0.511627
     73 C51          18.970     -5.385      1.143 ea            1 LIG        0.074802
     74 O23          18.439     -2.350      2.487 eb            1 LIG       -0.542414
     75 O24          19.914     -1.607     -0.792 ec            1 LIG       -0.542414
     76 O25          21.579     -1.202      1.589 ed            1 LIG       -0.511627
     77 C52          22.596     -0.263      1.942 ee            1 LIG        0.074802
     78 O26          14.581     -1.188     -5.398 ef            1 LIG       -0.735959
     79 O27          16.199     -2.921     -3.699 eg            1 LIG       -0.511627
     80 C53          17.157     -3.323     -4.679 eh            1 LIG        0.074802
     81 O28          17.839     -1.565     -1.854 ei            1 LIG       -0.542414
     82 O29          17.383      0.975     -4.473 ej            1 LIG       -0.542414
     83 O30          20.081      0.584     -3.722 ek            1 LIG       -0.511627
     84 C54          21.256      1.361     -3.487 el            1 LIG        0.074802
     85 O31          10.599      2.773     -4.186 em            1 LIG       -0.735959
     86 O32          12.488      0.808     -5.154 en            1 LIG       -0.511627
     87 C55          12.642      1.292     -6.488 eo            1 LIG        0.074802
     88 O33          15.091      1.153     -4.046 eq            1 LIG       -0.542414
     89 O34          13.782      4.580     -3.947 es            1 LIG       -0.542414
     90 O35          16.027      4.385     -5.538 et            1 LIG       -0.511627
     91 C56          16.800      5.572     -5.720 ev            1 LIG        0.074802
     92 H1           13.277      6.294      4.192 ew            1 LIG        0.056965
     93 H2           13.549      5.640      2.559 ex            1 LIG        0.056965
     94 H3            9.087      3.764      1.320 ey            1 LIG        0.497876
     95 H4            8.572      5.353     -3.234 ez            1 LIG        0.066990
     96 H5           10.228      5.837     -2.795 fa            1 LIG        0.066990
     97 H6            8.896      6.071     -1.638 fb            1 LIG        0.066990
     98 H7           15.719      7.564      1.385 fc            1 LIG        0.066990
     99 H8           14.004      7.772      0.955 fd            1 LIG        0.066990
    100 H9           15.268      8.051     -0.267 ff            1 LIG        0.066990
    101 H10          10.673      0.893      5.317 fg            1 LIG        0.497876
    102 H11           7.520      4.237      3.777 fh            1 LIG        0.066990
    103 H12           9.076      5.101      3.762 fi            1 LIG        0.066990
    104 H13           8.646      4.065      5.145 fj            1 LIG        0.066990
    105 H14          16.520      6.277      4.360 fk            1 LIG        0.066990
    106 H15          14.988      6.997      4.907 fl            1 LIG        0.066990
    107 H16          15.417      7.024      3.180 fm            1 LIG        0.066990
    108 H17          14.252     -2.781      5.690 fn            1 LIG        0.497876
    109 H18          10.303     -0.752      7.429 fo            1 LIG        0.066990
    110 H19          11.542      0.500      7.681 fp            1 LIG        0.066990
    111 H20          11.914     -1.203      8.038 fq            1 LIG        0.066990
    112 H21          14.939      3.433     10.392 fs            1 LIG        0.066990
    113 H22          15.584      4.405      9.048 ft            1 LIG        0.066990
    114 H23          16.326      2.837      9.448 fu            1 LIG        0.066990
    115 H24          17.694     -4.608      2.949 fv            1 LIG        0.497876
    116 H25          16.507     -4.856      7.528 fw            1 LIG        0.066990
    117 H26          17.232     -3.235      7.400 fx            1 LIG        0.066990
    118 H27          18.011     -4.625      6.605 fy            1 LIG        0.066990
    119 H28          21.217      2.215      4.857 fz            1 LIG        0.066990
    120 H29          21.132      0.571      5.534 gb            1 LIG        0.066990
    121 H30          20.461      1.944      6.446 gc            1 LIG        0.066990
    122 H31          16.916     -3.784     -1.929 gf            1 LIG        0.497876
    123 H32          18.773     -6.352      1.605 gg            1 LIG        0.066990
    124 H33          19.662     -4.818      1.766 gh            1 LIG        0.066990
    125 H34          19.409     -5.536      0.157 gi            1 LIG        0.066990
    126 H35          23.505     -0.798      2.218 gj            1 LIG        0.066990
    127 H36          22.257      0.337      2.787 gk            1 LIG        0.066990
    128 H37          22.800      0.388      1.093 gl            1 LIG        0.066990
    129 H38          13.984     -0.839     -4.732 gm            1 LIG        0.497876
    130 H39          17.145     -4.409     -4.775 gn            1 LIG        0.066990
    131 H40          18.150     -2.996     -4.372 go            1 LIG        0.066990
    132 H41          16.906     -2.871     -5.639 gp            1 LIG        0.066990
    133 H42          22.046      1.038     -4.164 gq            1 LIG        0.066990
    134 H43          21.582      1.223     -2.456 gr            1 LIG        0.066990
    135 H44          21.036      2.414     -3.661 gs            1 LIG        0.066990
    136 H45          10.558      2.533     -3.257 gt            1 LIG        0.497876
    137 H46          12.365      0.508     -7.193 gu            1 LIG        0.066990
    138 H47          13.681      1.579     -6.653 gv            1 LIG        0.066990
    139 H48          11.998      2.159     -6.637 gw            1 LIG        0.066990
    140 H49          16.780      5.861     -6.771 gx            1 LIG        0.066990
    141 H50          17.829      5.385     -5.414 gy            1 LIG        0.066990
    142 H51          16.381      6.375     -5.114 gz            1 LIG        0.066990
    143 H52          10.566      6.201      2.041 hb            1 LIG        0.060700
    144 H53           9.589      6.104     -0.212 hd            1 LIG        0.055736
    145 H54          10.699      3.295     -0.370 hh            1 LIG        0.078119
    146 H55          11.536      5.808     -1.913 hi            1 LIG        0.050773
    147 H56          13.109      4.199      0.226 hj            1 LIG        0.050773
    148 H57          14.420      5.458     -1.699 hk            1 LIG        0.056965
    149 H58          13.596      6.954     -1.194 hl            1 LIG        0.056965
    150 H59          12.002      2.982      6.970 hm            1 LIG        0.060700
    151 H60          10.020      3.608      5.806 hq            1 LIG        0.055736
    152 H61          11.071      2.166      3.332 hr            1 LIG        0.078119
    153 H62          10.754      5.142      3.814 ht            1 LIG        0.050773
    154 H63          13.230      3.342      3.571 hu            1 LIG        0.050773
    155 H64          15.995     -1.564      7.709 hv            1 LIG        0.060700
    156 H65          13.551     -1.223      7.963 hy            1 LIG        0.055736
    157 H66          13.629     -0.537      4.996 hz            1 LIG        0.078119
    158 H67          12.924      1.151      7.431 ia            1 LIG        0.050773
    159 H68          15.363      1.368      5.576 ib            1 LIG        0.050773
    160 H69          14.742      3.517      6.559 ic            1 LIG        0.056965
    161 H70          16.216      2.894      7.330 id            1 LIG        0.056965
    162 H71          20.158     -3.038      3.398 ie            1 LIG        0.060700
    163 H72          18.935     -3.902      5.405 if            1 LIG        0.055736
    164 H73          16.490     -2.823      3.959 ig            1 LIG        0.078119
    165 H74          17.722     -1.920      6.566 ih            1 LIG        0.050773
    166 H75          17.652     -0.442      3.882 ii            1 LIG        0.050773
    167 H76          17.726      0.938      6.031 ij            1 LIG        0.056965
    168 H77          19.223      0.092      6.473 ik            1 LIG        0.056965
    169 H78          19.529     -2.537     -2.589 il            1 LIG        0.060700
    170 H79          19.513     -4.283     -0.858 im            1 LIG        0.055736
    171 H80          17.130     -2.826      0.291 io            1 LIG        0.078119
    172 H81          19.948     -3.211      1.372 ip            1 LIG        0.050773
    173 H82          18.470     -0.757      0.381 iq            1 LIG        0.050773
    174 H83          20.685      0.372      0.638 is            1 LIG        0.056965
    175 H84          19.961     -0.107      2.175 it            1 LIG        0.056965
    176 H85          15.909      1.045     -5.919 iu            1 LIG        0.060700
    177 H86          16.650     -1.278     -5.718 iv            1 LIG        0.055736
    178 H87          15.535     -1.123     -2.871 iw            1 LIG        0.078119
    179 H88          18.378     -1.450     -3.880 ix            1 LIG        0.050773
    180 H89          16.948      0.861     -2.422 iy            1 LIG        0.050773
    181 H90          19.047      2.135     -2.858 iz            1 LIG        0.056965
    182 H91          19.356      0.760     -1.794 ja            1 LIG        0.056965
    183 H92          11.798      5.147     -3.824 jb            1 LIG        0.060700
    184 H93          12.037      3.365     -5.534 jc            1 LIG        0.055736
    185 H94          12.758      1.534     -3.211 jd            1 LIG        0.078119
    186 H95          14.473      2.421     -5.576 je            1 LIG        0.050773
    187 H96          14.760      3.244     -2.636 jf            1 LIG        0.050773
    188 H97          16.870      3.297     -3.996 jg            1 LIG        0.056965
    189 H98          16.339      4.933     -3.558 jh            1 LIG        0.056965
@<TRIPOS>BOND
        1  1  2  1
        2  1  47  1
        3  1  53  1
        4  1  143  1
        5  2  3  1
        6  2  43  1
        7  2  144  1
        8  3  4  1
        9  3  44  1
        10  3  145  1
        11  4  5  1
        12  4  46  1
        13  4  146  1
        14  5  6  1
        15  5  47  1
        16  5  147  1
        17  6  48  1
        18  6  148  1
        19  6  149  1
        20  7  8  1
        21  7  54  1
        22  7  60  1
        23  7  150  1
        24  8  9  1
        25  8  50  1
        26  8  151  1
        27  9  10  1
        28  9  51  1
        29  9  152  1
        30  10  11  1
        31  10  53  1
        32  10  153  1
        33  11  12  1
        34  11  54  1
        35  11  154  1
        36  12  55  1
        37  12  92  1
        38  12  93  1
        39  13  14  1
        40  13  61  1
        41  13  67  1
        42  13  155  1
        43  14  15  1
        44  14  57  1
        45  14  156  1
        46  15  16  1
        47  15  58  1
        48  15  157  1
        49  16  17  1
        50  16  60  1
        51  16  158  1
        52  17  18  1
        53  17  61  1
        54  17  159  1
        55  18  62  1
        56  18  160  1
        57  18  161  1
        58  19  20  1
        59  19  68  1
        60  19  74  1
        61  19  162  1
        62  20  21  1
        63  20  64  1
        64  20  163  1
        65  21  22  1
        66  21  65  1
        67  21  164  1
        68  22  23  1
        69  22  67  1
        70  22  165  1
        71  23  24  1
        72  23  68  1
        73  23  166  1
        74  24  69  1
        75  24  167  1
        76  24  168  1
        77  25  26  1
        78  25  75  1
        79  25  81  1
        80  25  169  1
        81  26  27  1
        82  26  71  1
        83  26  170  1
        84  27  28  1
        85  27  72  1
        86  27  171  1
        87  28  29  1
        88  28  74  1
        89  28  172  1
        90  29  30  1
        91  29  75  1
        92  29  173  1
        93  30  76  1
        94  30  174  1
        95  30  175  1
        96  31  32  1
        97  31  82  1
        98  31  88  1
        99  31  176  1
        100  32  33  1
        101  32  78  1
        102  32  177  1
        103  33  34  1
        104  33  79  1
        105  33  178  1
        106  34  35  1
        107  34  81  1
        108  34  179  1
        109  35  36  1
        110  35  82  1
        111  35  180  1
        112  36  83  1
        113  36  181  1
        114  36  182  1
        115  37  38  1
        116  37  46  1
        117  37  89  1
        118  37  183  1
        119  38  39  1
        120  38  85  1
        121  38  184  1
        122  39  40  1
        123  39  86  1
        124  39  185  1
        125  40  41  1
        126  40  88  1
        127  40  186  1
        128  41  42  1
        129  41  89  1
        130  41  187  1
        131  42  90  1
        132  42  188  1
        133  42  189  1
        134  43  94  1
        135  44  45  1
        136  45  95  1
        137  45  96  1
        138  45  97  1
        139  48  49  1
        140  49  98  1
        141  49  99  1
        142  49  100  1
        143  50  101  1
        144  51  52  1
        145  52  102  1
        146  52  103  1
        147  52  104  1
        148  55  56  1
        149  56  105  1
        150  56  106  1
        151  56  107  1
        152  57  108  1
        153  58  59  1
        154  59  109  1
        155  59  110  1
        156  59  111  1
        157  62  63  1
        158  63  112  1
        159  63  113  1
        160  63  114  1
        161  64  115  1
        162  65  66  1
        163  66  116  1
        164  66  117  1
        165  66  118  1
        166  69  70  1
        167  70  119  1
        168  70  120  1
        169  70  121  1
        170  71  122  1
        171  72  73  1
        172  73  123  1
        173  73  124  1
        174  73  125  1
        175  76  77  1
        176  77  126  1
        177  77  127  1
        178  77  128  1
        179  78  129  1
        180  79  80  1
        181  80  130  1
        182  80  131  1
        183  80  132  1
        184  83  84  1
        185  84  133  1
        186  84  134  1
        187  84  135  1
        188  85  136  1
        189  86  87  1
        190  87  137  1
        191  87  138  1
        192  87  139  1
        193  90  91  1
        194  91  140  1
        195  91  141  1
        196  91  142  1
@<TRIPOS>SUBSTRUCTURE
       1 LIG             1 RESIDUE    0 **** ROOT      0
