@<TRIPOS>MOLECULE
LIG
189 196
SMALL
USER_CHARGES
@<TRIPOS>ATOM
      1 C1         16.1813  112.4295   47.8052 aa             2 LIG     0.430935
      2 C2         16.1526  111.0970   46.9346 ab             1 LIG     0.207656
      3 C3         17.4444  110.2459   47.0805 ad             2 LIG     0.188798
      4 C4         18.7880  111.2106   47.0155 ae             1 LIG     0.195488
      5 C5         18.6271  112.6098   47.7472 af             1 LIG     0.195488
      6 C6         19.8219  113.6336   47.3826 ah             0 LIG     0.166225
      7 C7         14.6028  112.1987   52.8391 ai             2 LIG     0.430935
      8 C8         14.0316  110.9545   51.9724 aj             1 LIG     0.207656
      9 C9         14.9353  110.7784   50.7579 ak             2 LIG     0.188798
     10 C10        15.0113  112.1432   49.9784 an             1 LIG     0.195488
     11 C11        15.4060  113.3776   50.8654 ao             1 LIG     0.195488
     12 C12        15.3595  114.7196   50.1207 ap             0 LIG     0.166225
     13 C13        18.2867  111.7653   56.8186 aq             2 LIG     0.430935
     14 C14        17.4903  110.4423   56.4015 av             1 LIG     0.207656
     15 C15        17.1286  110.6341   54.8811 aw             2 LIG     0.188798
     16 C16        16.2900  111.9710   54.6572 ax             1 LIG     0.195488
     17 C17        17.1371  113.1810   55.1519 ay             1 LIG     0.195488
     18 C18        16.3466  114.4876   54.9942 az             0 LIG     0.166225
     19 C19        23.5356  113.2217   56.5128 bb             2 LIG     0.430935
     20 C20        22.8109  112.7150   57.8187 bc             1 LIG     0.207656
     21 C21        21.5443  111.9268   57.4321 bd             2 LIG     0.188798
     22 C22        20.5498  112.7956   56.5563 bf             1 LIG     0.195488
     23 C23        21.3936  113.2818   55.4020 bg             1 LIG     0.195488
     24 C24        20.8226  114.2828   54.3606 bh             0 LIG     0.166225
     25 C25        26.9920  111.1180   52.8492 bj             2 LIG     0.430935
     26 C26        26.8678  110.2505   54.2169 bk             1 LIG     0.207656
     27 C27        25.4698  110.4533   54.8422 bl             2 LIG     0.188798
     28 C28        25.2353  111.9681   55.1692 bm             1 LIG     0.195488
     29 C29        25.5132  112.8061   53.8422 bn             1 LIG     0.195488
     30 C30        25.4759  114.3384   54.1034 bo             0 LIG     0.166225
     31 C31        25.6063  110.5369   47.7970 bp             2 LIG     0.430935
     32 C32        26.3133  109.3681   48.5047 bq             1 LIG     0.207656
     33 C33        26.0954  109.4867   49.9681 bs             2 LIG     0.188798
     34 C34        26.4291  110.8742   50.5163 bt             1 LIG     0.195488
     35 C35        25.8174  112.0350   49.6670 bu             1 LIG     0.195488
     36 C36        26.3511  113.5388   50.1270 bv             0 LIG     0.166225
     37 C37        20.5469  109.5236   46.6149 bw             1 LIG     0.430935
     38 C38        21.2491  108.3347   47.2043 bx             1 LIG     0.207656
     39 C39        22.4502  108.8494   48.0489 by             2 LIG     0.188798
     40 C40        23.2712  109.8908   47.1877 bz             1 LIG     0.195488
     41 C41        22.4822  111.0241   46.4761 cb             1 LIG     0.195488
     42 C42        23.4086  111.7119   45.3205 ci             0 LIG     0.166225
     43 O1         14.9509  110.3519   47.1287 cj             0 LIG     -0.735959
     44 O2         17.5081  109.2999   46.0405 ck             0 LIG     -0.511627
     45 C43        17.0935  109.7665   44.6574 cm             0 LIG     0.074802
     46 O3         19.9032  110.3717   47.6086 cn             0 LIG     -0.542414
     47 O4         17.3751  113.1773   47.4532 ct             0 LIG     -0.542414
     48 O5         20.2586  113.4949   45.9883 cw             0 LIG     -0.511627
     49 C44        19.4064  114.2045   44.9439 da             0 LIG     0.074802
     50 O6         14.0697  109.7615   52.7533 db             0 LIG     -0.735959
     51 O7         14.4364  109.7741   49.8688 dc             0 LIG     -0.511627
     52 C45        14.8484  108.3403   49.9905 dd             0 LIG     0.074802
     53 O8         16.1870  111.9578   49.1733 de             0 LIG     -0.542414
     54 O9         14.5910  113.4241   52.0070 df             0 LIG     -0.542414
     55 O10        14.0096  114.9584   49.6098 dg             0 LIG     -0.511627
     56 C46        13.9610  115.8155   48.4654 dh             0 LIG     0.074802
     57 O11        18.2964  109.2017   56.5297 di             0 LIG     -0.735959
     58 O12        16.2551  109.4931   54.4764 dj             0 LIG     -0.511627
     59 C47        16.8930  108.5223   53.5830 dk             0 LIG     0.074802
     60 O13        15.9877  111.9830   53.2067 dl             0 LIG     -0.542414
     61 O14        17.5499  112.9242   56.5298 dm             0 LIG     -0.542414
     62 O15        15.1905  114.4287   55.8628 dn             0 LIG     -0.511627
     63 C48        14.6777  115.7554   56.2408 do             0 LIG     0.074802
     64 O16        23.6229  111.9202   58.6162 dp             0 LIG     -0.735959
     65 O17        20.8640  111.4358   58.6079 dq             0 LIG     -0.511627
     66 C49        20.8551  110.0006   58.5680 dr             0 LIG     0.074802
     67 O18        19.5371  111.8896   55.9871 ds             0 LIG     -0.542414
     68 O19        22.5136  114.0294   55.9343 dt             0 LIG     -0.542414
     69 O20        20.3177  115.4631   54.9685 dv             0 LIG     -0.511627
     70 C50        19.8730  116.3507   54.0443 dw             0 LIG     0.074802
     71 O21        27.1340  108.8643   54.0340 dx             0 LIG     -0.735959
     72 O22        25.3486  109.7192   56.1146 dz             0 LIG     -0.511627
     73 C51        24.1146  108.9819   56.2176 ea             0 LIG     0.074802
     74 O23        23.8379  112.1285   55.6190 eb             0 LIG     -0.542414
     75 O24        26.8702  112.4978   53.1358 ec             0 LIG     -0.542414
     76 O25        26.3496  114.6922   55.2373 ed             0 LIG     -0.511627
     77 C52        26.7451  116.1168   55.2664 ee             0 LIG     0.074802
     78 O26        26.0345  108.0607   48.0279 ef             0 LIG     -0.735959
     79 O27        26.7918  108.4490   50.8258 eg             0 LIG     -0.511627
     80 C53        28.1476  108.1746   50.7291 eh             0 LIG     0.074802
     81 O28        25.9736  110.7699   51.8377 ei             0 LIG     -0.542414
     82 O29        26.1482  111.7747   48.2850 ej             0 LIG     -0.542414
     83 O30        25.8974  114.5269   49.1033 ek             0 LIG     -0.511627
     84 C54        26.9625  115.0614   48.3324 el             0 LIG     0.074802
     85 O31        20.3215  107.4858   48.0439 em             0 LIG     -0.735959
     86 O32        23.4049  107.7350   48.3792 en             0 LIG     -0.511627
     87 C55        23.0215  107.1422   49.6889 eo             0 LIG     0.074802
     88 O33        24.1618  110.5121   48.1303 eq             0 LIG     -0.542414
     89 O34        21.4241  110.3343   45.8245 es             0 LIG     -0.542414
     90 O35        24.1838  110.7873   44.5886 et             0 LIG     -0.511627
     91 C56        25.1071  111.3353   43.6606 ev             0 LIG     0.074802
     92 H1         16.0226  114.5930   49.2846 ew             0 LIG     0.056965
     93 H2         15.6322  115.5303   50.7906 ex             0 LIG     0.056965
     94 H3         14.9983  110.0663   48.0714 ey             0 LIG     0.497876
     95 H4         17.2348  109.0018   43.8834 ez             0 LIG     0.066990
     96 H5         17.4794  110.7282   44.3576 fa             0 LIG     0.066990
     97 H6         15.9722  109.8965   44.5495 fb             0 LIG     0.066990
     98 H7         19.8292  113.9236   43.9824 fc             0 LIG     0.066990
     99 H8         19.5304  115.3005   45.0074 fd             0 LIG     0.066990
    100 H9         18.3120  113.8950   44.9966 ff             0 LIG     0.066990
    101 H10        14.8008  109.9339   53.3876 fg             0 LIG     0.497876
    102 H11        14.2568  107.7161   49.2340 fh             0 LIG     0.066990
    103 H12        14.5231  107.8531   50.9525 fi             0 LIG     0.066990
    104 H13        15.9601  108.2180   49.9276 fj             0 LIG     0.066990
    105 H14        14.4712  116.7723   48.7953 fk             0 LIG     0.066990
    106 H15        14.5063  115.3884   47.6160 fl             0 LIG     0.066990
    107 H16        12.8982  115.9073   48.1738 fm             0 LIG     0.066990
    108 H17        19.0482  109.2463   55.8888 fn             0 LIG     0.497876
    109 H18        17.8351  108.2285   53.9884 fo             0 LIG     0.066990
    110 H19        17.0109  108.9619   52.5115 fp             0 LIG     0.066990
    111 H20        16.2641  107.5863   53.4748 fq             0 LIG     0.066990
    112 H21        13.7320  115.6843   56.7328 fs             0 LIG     0.066990
    113 H22        14.5731  116.4543   55.3630 ft             0 LIG     0.066990
    114 H23        15.3715  116.2491   57.0191 fu             0 LIG     0.066990
    115 H24        24.4904  112.4035   58.8072 fv             0 LIG     0.497876
    116 H25        21.8712  109.7694   58.8411 fw             0 LIG     0.066990
    117 H26        20.7059  109.5085   57.6007 fx             0 LIG     0.066990
    118 H27        20.1066  109.6343   59.2932 fy             0 LIG     0.066990
    119 H28        19.4744  117.3034   54.4780 fz             0 LIG     0.066990
    120 H29        19.1841  115.9805   53.2543 gb             0 LIG     0.066990
    121 H30        20.6699  116.8000   53.5701 gc             0 LIG     0.066990
    122 H31        26.3577  108.4791   53.5073 gf             0 LIG     0.497876
    123 H32        23.2228  109.5769   56.0152 gg             0 LIG     0.066990
    124 H33        23.8985  108.5776   57.2097 gh             0 LIG     0.066990
    125 H34        24.1357  108.1663   55.5329 gi             0 LIG     0.066990
    126 H35        27.8519  116.1906   55.6256 gj             0 LIG     0.066990
    127 H36        26.0453  116.7595   55.9239 gk             0 LIG     0.066990
    128 H37        26.5551  116.5410   54.3348 gl             0 LIG     0.066990
    129 H38        25.1128  107.8340   48.1413 gm             0 LIG     0.497876
    130 H39        28.4311  108.0443   49.7180 gn             0 LIG     0.066990
    131 H40        28.4540  107.3592   51.3728 go             0 LIG     0.066990
    132 H41        28.6953  109.0654   51.1448 gp             0 LIG     0.066990
    133 H42        27.3896  114.2963   47.6443 gq             0 LIG     0.066990
    134 H43        27.7630  115.3307   48.9917 gr             0 LIG     0.066990
    135 H44        26.6066  115.9333   47.8810 gs             0 LIG     0.066990
    136 H45        20.4481  106.5258   47.7532 gt             0 LIG     0.497876
    137 H46        22.2339  106.5105   49.5046 gu             0 LIG     0.066990
    138 H47        22.7301  107.8595   50.4068 gv             0 LIG     0.066990
    139 H48        23.8570  106.5805   50.1187 gw             0 LIG     0.066990
    140 H49        26.0522  110.7491   43.5651 gx             0 LIG     0.066990
    141 H50        25.3900  112.3817   43.9166 gy             0 LIG     0.066990
    142 H51        24.6013  111.4262   42.7394 gz             0 LIG     0.066990
    143 H52        15.2670  113.0123   47.6447 hb             0 LIG     0.060700
    144 H53        16.1137  111.5322   45.9284 hd             0 LIG     0.055736
    145 H54        17.4699  109.8472   48.1021 hh             0 LIG     0.078119
    146 H55        18.9378  111.4140   45.9480 hi             0 LIG     0.050773
    147 H56        18.5419  112.3935   48.8193 hj             0 LIG     0.050773
    148 H57        19.5835  114.6914   47.5485 hk             0 LIG     0.056965
    149 H58        20.6440  113.3928   48.0679 hl             0 LIG     0.056965
    150 H59        14.0747  112.3931   53.7796 hm             0 LIG     0.060700
    151 H60        12.9955  111.1475   51.6680 hq             0 LIG     0.055736
    152 H61        15.9067  110.4466   51.1448 hr             0 LIG     0.078119
    153 H62        14.0736  112.2773   49.4251 ht             0 LIG     0.050773
    154 H63        16.4154  113.2175   51.2641 hu             0 LIG     0.050773
    155 H64        18.5930  111.7472   57.8707 hv             0 LIG     0.060700
    156 H65        16.5494  110.4149   56.9649 hy             0 LIG     0.055736
    157 H66        17.9924  110.7996   54.2255 hz             0 LIG     0.078119
    158 H67        15.3468  111.9608   55.2084 ia             0 LIG     0.050773
    159 H68        18.0028  113.1658   54.4783 ib             0 LIG     0.050773
    160 H69        16.0189  114.4951   53.9709 ic             0 LIG     0.056965
    161 H70        16.8833  115.4318   55.2755 id             0 LIG     0.056965
    162 H71        24.4006  113.8980   56.7690 ie             0 LIG     0.060700
    163 H72        22.3998  113.5577   58.3955 if             0 LIG     0.055736
    164 H73        21.8840  111.1162   56.8136 ig             0 LIG     0.078119
    165 H74        20.2098  113.5981   57.2493 ih             0 LIG     0.050773
    166 H75        21.6368  112.3313   54.9390 ii             0 LIG     0.050773
    167 H76        21.6535  114.5159   53.6478 ij             0 LIG     0.056965
    168 H77        20.0660  113.8204   53.7965 ik             0 LIG     0.056965
    169 H78        28.0092  110.9543   52.4924 il             0 LIG     0.060700
    170 H79        27.5690  110.6168   54.9762 im             0 LIG     0.055736
    171 H80        24.6881  110.0937   54.1550 io             0 LIG     0.078119
    172 H81        25.9294  112.3480   55.9052 ip             0 LIG     0.050773
    173 H82        24.8224  112.4997   53.0210 iq             0 LIG     0.050773
    174 H83        25.7458  114.8388   53.1807 is             0 LIG     0.056965
    175 H84        24.4782  114.6164   54.3391 it             0 LIG     0.056965
    176 H85        25.8725  110.4741   46.7222 iu             0 LIG     0.060700
    177 H86        27.2895  109.5071   48.1834 iv             0 LIG     0.055736
    178 H87        25.0309  109.3357   50.0085 iw             0 LIG     0.078119
    179 H88        27.4553  111.0855   50.3712 ix             0 LIG     0.050773
    180 H89        24.7135  112.0534   49.8074 iy             0 LIG     0.050773
    181 H90        26.0141  113.9001   51.1056 iz             0 LIG     0.056965
    182 H91        27.4557  113.6256   50.1863 ja             0 LIG     0.056965
    183 H92        19.7657  109.1587   45.8920 jb             0 LIG     0.060700
    184 H93        21.6950  107.7608   46.4467 jc             0 LIG     0.055736
    185 H94        22.0819  109.4522   48.8813 jd             0 LIG     0.078119
    186 H95        23.8348  109.3215   46.4277 je             0 LIG     0.050773
    187 H96        22.1540  111.7131   47.2081 jf             0 LIG     0.050773
    188 H97        24.0539  112.2831   45.8451 jg             0 LIG     0.056965
    189 H98        22.8004  112.4418   44.7972 jh             0 LIG     0.056965
@<TRIPOS>BOND
        1  1  2  1
        2  1  47  1
        3  1  53  1
        4  1  143  1
        5  2  3  1
        6  2  43  1
        7  2  144  1
        8  3  4  1
        9  3  44  1
        10  3  145  1
        11  4  5  1
        12  4  46  1
        13  4  146  1
        14  5  6  1
        15  5  47  1
        16  5  147  1
        17  6  48  1
        18  6  148  1
        19  6  149  1
        20  7  8  1
        21  7  54  1
        22  7  60  1
        23  7  150  1
        24  8  9  1
        25  8  50  1
        26  8  151  1
        27  9  10  1
        28  9  51  1
        29  9  152  1
        30  10  11  1
        31  10  53  1
        32  10  153  1
        33  11  12  1
        34  11  54  1
        35  11  154  1
        36  12  55  1
        37  12  92  1
        38  12  93  1
        39  13  14  1
        40  13  61  1
        41  13  67  1
        42  13  155  1
        43  14  15  1
        44  14  57  1
        45  14  156  1
        46  15  16  1
        47  15  58  1
        48  15  157  1
        49  16  17  1
        50  16  60  1
        51  16  158  1
        52  17  18  1
        53  17  61  1
        54  17  159  1
        55  18  62  1
        56  18  160  1
        57  18  161  1
        58  19  20  1
        59  19  68  1
        60  19  74  1
        61  19  162  1
        62  20  21  1
        63  20  64  1
        64  20  163  1
        65  21  22  1
        66  21  65  1
        67  21  164  1
        68  22  23  1
        69  22  67  1
        70  22  165  1
        71  23  24  1
        72  23  68  1
        73  23  166  1
        74  24  69  1
        75  24  167  1
        76  24  168  1
        77  25  26  1
        78  25  75  1
        79  25  81  1
        80  25  169  1
        81  26  27  1
        82  26  71  1
        83  26  170  1
        84  27  28  1
        85  27  72  1
        86  27  171  1
        87  28  29  1
        88  28  74  1
        89  28  172  1
        90  29  30  1
        91  29  75  1
        92  29  173  1
        93  30  76  1
        94  30  174  1
        95  30  175  1
        96  31  32  1
        97  31  82  1
        98  31  88  1
        99  31  176  1
        100  32  33  1
        101  32  78  1
        102  32  177  1
        103  33  34  1
        104  33  79  1
        105  33  178  1
        106  34  35  1
        107  34  81  1
        108  34  179  1
        109  35  36  1
        110  35  82  1
        111  35  180  1
        112  36  83  1
        113  36  181  1
        114  36  182  1
        115  37  38  1
        116  37  46  1
        117  37  89  1
        118  37  183  1
        119  38  39  1
        120  38  85  1
        121  38  184  1
        122  39  40  1
        123  39  86  1
        124  39  185  1
        125  40  41  1
        126  40  88  1
        127  40  186  1
        128  41  42  1
        129  41  89  1
        130  41  187  1
        131  42  90  1
        132  42  188  1
        133  42  189  1
        134  43  94  1
        135  44  45  1
        136  45  95  1
        137  45  96  1
        138  45  97  1
        139  48  49  1
        140  49  98  1
        141  49  99  1
        142  49  100  1
        143  50  101  1
        144  51  52  1
        145  52  102  1
        146  52  103  1
        147  52  104  1
        148  55  56  1
        149  56  105  1
        150  56  106  1
        151  56  107  1
        152  57  108  1
        153  58  59  1
        154  59  109  1
        155  59  110  1
        156  59  111  1
        157  62  63  1
        158  63  112  1
        159  63  113  1
        160  63  114  1
        161  64  115  1
        162  65  66  1
        163  66  116  1
        164  66  117  1
        165  66  118  1
        166  69  70  1
        167  70  119  1
        168  70  120  1
        169  70  121  1
        170  71  122  1
        171  72  73  1
        172  73  123  1
        173  73  124  1
        174  73  125  1
        175  76  77  1
        176  77  126  1
        177  77  127  1
        178  77  128  1
        179  78  129  1
        180  79  80  1
        181  80  130  1
        182  80  131  1
        183  80  132  1
        184  83  84  1
        185  84  133  1
        186  84  134  1
        187  84  135  1
        188  85  136  1
        189  86  87  1
        190  87  137  1
        191  87  138  1
        192  87  139  1
        193  90  91  1
        194  91  140  1
        195  91  141  1
        196  91  142  1
@<TRIPOS>SUBSTRUCTURE
       1 LIG             1 RESIDUE    0 **** ROOT      0

