bCDH26DM
                    3D

189196  0  0  1  0            999 V2000
   16.1813  112.4295   47.8052  C    0  0  2  0  0  0
   16.1526  111.0970   46.9346  C    0  0  1  0  0  0
   17.4444  110.2459   47.0805  C    0  0  2  0  0  0
   18.7880  111.2106   47.0155  C    0  0  1  0  0  0
   18.6271  112.6098   47.7472  C    0  0  1  0  0  0
   19.8219  113.6336   47.3826  C    0  0  0  0  0  0
   14.6028  112.1987   52.8391  C    0  0  2  0  0  0
   14.0316  110.9545   51.9724  C    0  0  1  0  0  0
   14.9353  110.7784   50.7579  C    0  0  2  0  0  0
   15.0113  112.1432   49.9784  C    0  0  1  0  0  0
   15.4060  113.3776   50.8654  C    0  0  1  0  0  0
   15.3595  114.7196   50.1207  C    0  0  0  0  0  0
   18.2867  111.7653   56.8186  C    0  0  2  0  0  0
   17.4903  110.4423   56.4015  C    0  0  1  0  0  0
   17.1286  110.6341   54.8811  C    0  0  2  0  0  0
   16.2900  111.9710   54.6572  C    0  0  1  0  0  0
   17.1371  113.1810   55.1519  C    0  0  1  0  0  0
   16.3466  114.4876   54.9942  C    0  0  0  0  0  0
   23.5356  113.2217   56.5128  C    0  0  2  0  0  0
   22.8109  112.7150   57.8187  C    0  0  1  0  0  0
   21.5443  111.9268   57.4321  C    0  0  2  0  0  0
   20.5498  112.7956   56.5563  C    0  0  1  0  0  0
   21.3936  113.2818   55.4020  C    0  0  1  0  0  0
   20.8226  114.2828   54.3606  C    0  0  0  0  0  0
   26.9920  111.1180   52.8492  C    0  0  2  0  0  0
   26.8678  110.2505   54.2169  C    0  0  1  0  0  0
   25.4698  110.4533   54.8422  C    0  0  2  0  0  0
   25.2353  111.9681   55.1692  C    0  0  1  0  0  0
   25.5132  112.8061   53.8422  C    0  0  1  0  0  0
   25.4759  114.3384   54.1034  C    0  0  0  0  0  0
   25.6063  110.5369   47.7970  C    0  0  2  0  0  0
   26.3133  109.3681   48.5047  C    0  0  1  0  0  0
   26.0954  109.4867   49.9681  C    0  0  2  0  0  0
   26.4291  110.8742   50.5163  C    0  0  1  0  0  0
   25.8174  112.0350   49.6670  C    0  0  1  0  0  0
   26.3511  113.5388   50.1270  C    0  0  0  0  0  0
   20.5469  109.5236   46.6149  C    0  0  1  0  0  0
   21.2491  108.3347   47.2043  C    0  0  1  0  0  0
   22.4502  108.8494   48.0489  C    0  0  2  0  0  0
   23.2712  109.8908   47.1877  C    0  0  1  0  0  0
   22.4822  111.0241   46.4761  C    0  0  1  0  0  0
   23.4086  111.7119   45.3205  C    0  0  0  0  0  0
   14.9509  110.3519   47.1287  O    0  0  0  0  0  0
   17.5081  109.2999   46.0405  O    0  0  0  0  0  0
   17.0935  109.7665   44.6574  C    0  0  0  0  0  0
   19.9032  110.3717   47.6086  O    0  0  0  0  0  0
   17.3751  113.1773   47.4532  O    0  0  0  0  0  0
   20.2586  113.4949   45.9883  O    0  0  0  0  0  0
   19.4064  114.2045   44.9439  C    0  0  0  0  0  0
   14.0697  109.7615   52.7533  O    0  0  0  0  0  0
   14.4364  109.7741   49.8688  O    0  0  0  0  0  0
   14.8484  108.3403   49.9905  C    0  0  0  0  0  0
   16.1870  111.9578   49.1733  O    0  0  0  0  0  0
   14.5910  113.4241   52.0070  O    0  0  0  0  0  0
   14.0096  114.9584   49.6098  O    0  0  0  0  0  0
   13.9610  115.8155   48.4654  C    0  0  0  0  0  0
   18.2964  109.2017   56.5297  O    0  0  0  0  0  0
   16.2551  109.4931   54.4764  O    0  0  0  0  0  0
   16.8930  108.5223   53.5830  C    0  0  0  0  0  0
   15.9877  111.9830   53.2067  O    0  0  0  0  0  0
   17.5499  112.9242   56.5298  O    0  0  0  0  0  0
   15.1905  114.4287   55.8628  O    0  0  0  0  0  0
   14.6777  115.7554   56.2408  C    0  0  0  0  0  0
   23.6229  111.9202   58.6162  O    0  0  0  0  0  0
   20.8640  111.4358   58.6079  O    0  0  0  0  0  0
   20.8551  110.0006   58.5680  C    0  0  0  0  0  0
   19.5371  111.8896   55.9871  O    0  0  0  0  0  0
   22.5136  114.0294   55.9343  O    0  0  0  0  0  0
   20.3177  115.4631   54.9685  O    0  0  0  0  0  0
   19.8730  116.3507   54.0443  C    0  0  0  0  0  0
   27.1340  108.8643   54.0340  O    0  0  0  0  0  0
   25.3486  109.7192   56.1146  O    0  0  0  0  0  0
   24.1146  108.9819   56.2176  C    0  0  0  0  0  0
   23.8379  112.1285   55.6190  O    0  0  0  0  0  0
   26.8702  112.4978   53.1358  O    0  0  0  0  0  0
   26.3496  114.6922   55.2373  O    0  0  0  0  0  0
   26.7451  116.1168   55.2664  C    0  0  0  0  0  0
   26.0345  108.0607   48.0279  O    0  0  0  0  0  0
   26.7918  108.4490   50.8258  O    0  0  0  0  0  0
   28.1476  108.1746   50.7291  C    0  0  0  0  0  0
   25.9736  110.7699   51.8377  O    0  0  0  0  0  0
   26.1482  111.7747   48.2850  O    0  0  0  0  0  0
   25.8974  114.5269   49.1033  O    0  0  0  0  0  0
   26.9625  115.0614   48.3324  C    0  0  0  0  0  0
   20.3215  107.4858   48.0439  O    0  0  0  0  0  0
   23.4049  107.7350   48.3792  O    0  0  0  0  0  0
   23.0215  107.1422   49.6889  C    0  0  0  0  0  0
   24.1618  110.5121   48.1303  O    0  0  0  0  0  0
   21.4241  110.3343   45.8245  O    0  0  0  0  0  0
   24.1838  110.7873   44.5886  O    0  0  0  0  0  0
   25.1071  111.3353   43.6606  C    0  0  0  0  0  0
   16.0226  114.5930   49.2846  H    0  0  0  0  0  0
   15.6322  115.5303   50.7906  H    0  0  0  0  0  0
   14.9983  110.0663   48.0714  H    0  0  0  0  0  0
   17.2348  109.0018   43.8834  H    0  0  0  0  0  0
   17.4794  110.7282   44.3576  H    0  0  0  0  0  0
   15.9722  109.8965   44.5495  H    0  0  0  0  0  0
   19.8292  113.9236   43.9824  H    0  0  0  0  0  0
   19.5304  115.3005   45.0074  H    0  0  0  0  0  0
   18.3120  113.8950   44.9966  H    0  0  0  0  0  0
   14.8008  109.9339   53.3876  H    0  0  0  0  0  0
   14.2568  107.7161   49.2340  H    0  0  0  0  0  0
   14.5231  107.8531   50.9525  H    0  0  0  0  0  0
   15.9601  108.2180   49.9276  H    0  0  0  0  0  0
   14.4712  116.7723   48.7953  H    0  0  0  0  0  0
   14.5063  115.3884   47.6160  H    0  0  0  0  0  0
   12.8982  115.9073   48.1738  H    0  0  0  0  0  0
   19.0482  109.2463   55.8888  H    0  0  0  0  0  0
   17.8351  108.2285   53.9884  H    0  0  0  0  0  0
   17.0109  108.9619   52.5115  H    0  0  0  0  0  0
   16.2641  107.5863   53.4748  H    0  0  0  0  0  0
   13.7320  115.6843   56.7328  H    0  0  0  0  0  0
   14.5731  116.4543   55.3630  H    0  0  0  0  0  0
   15.3715  116.2491   57.0191  H    0  0  0  0  0  0
   24.4904  112.4035   58.8072  H    0  0  0  0  0  0
   21.8712  109.7694   58.8411  H    0  0  0  0  0  0
   20.7059  109.5085   57.6007  H    0  0  0  0  0  0
   20.1066  109.6343   59.2932  H    0  0  0  0  0  0
   19.4744  117.3034   54.4780  H    0  0  0  0  0  0
   19.1841  115.9805   53.2543  H    0  0  0  0  0  0
   20.6699  116.8000   53.5701  H    0  0  0  0  0  0
   26.3577  108.4791   53.5073  H    0  0  0  0  0  0
   23.2228  109.5769   56.0152  H    0  0  0  0  0  0
   23.8985  108.5776   57.2097  H    0  0  0  0  0  0
   24.1357  108.1663   55.5329  H    0  0  0  0  0  0
   27.8519  116.1906   55.6256  H    0  0  0  0  0  0
   26.0453  116.7595   55.9239  H    0  0  0  0  0  0
   26.5551  116.5410   54.3348  H    0  0  0  0  0  0
   25.1128  107.8340   48.1413  H    0  0  0  0  0  0
   28.4311  108.0443   49.7180  H    0  0  0  0  0  0
   28.4540  107.3592   51.3728  H    0  0  0  0  0  0
   28.6953  109.0654   51.1448  H    0  0  0  0  0  0
   27.3896  114.2963   47.6443  H    0  0  0  0  0  0
   27.7630  115.3307   48.9917  H    0  0  0  0  0  0
   26.6066  115.9333   47.8810  H    0  0  0  0  0  0
   20.4481  106.5258   47.7532  H    0  0  0  0  0  0
   22.2339  106.5105   49.5046  H    0  0  0  0  0  0
   22.7301  107.8595   50.4068  H    0  0  0  0  0  0
   23.8570  106.5805   50.1187  H    0  0  0  0  0  0
   26.0522  110.7491   43.5651  H    0  0  0  0  0  0
   25.3900  112.3817   43.9166  H    0  0  0  0  0  0
   24.6013  111.4262   42.7394  H    0  0  0  0  0  0
   15.2670  113.0123   47.6447  H    0  0  0  0  0  0
   16.1137  111.5322   45.9284  H    0  0  0  0  0  0
   17.4699  109.8472   48.1021  H    0  0  0  0  0  0
   18.9378  111.4140   45.9480  H    0  0  0  0  0  0
   18.5419  112.3935   48.8193  H    0  0  0  0  0  0
   19.5835  114.6914   47.5485  H    0  0  0  0  0  0
   20.6440  113.3928   48.0679  H    0  0  0  0  0  0
   14.0747  112.3931   53.7796  H    0  0  0  0  0  0
   12.9955  111.1475   51.6680  H    0  0  0  0  0  0
   15.9067  110.4466   51.1448  H    0  0  0  0  0  0
   14.0736  112.2773   49.4251  H    0  0  0  0  0  0
   16.4154  113.2175   51.2641  H    0  0  0  0  0  0
   18.5930  111.7472   57.8707  H    0  0  0  0  0  0
   16.5494  110.4149   56.9649  H    0  0  0  0  0  0
   17.9924  110.7996   54.2255  H    0  0  0  0  0  0
   15.3468  111.9608   55.2084  H    0  0  0  0  0  0
   18.0028  113.1658   54.4783  H    0  0  0  0  0  0
   16.0189  114.4951   53.9709  H    0  0  0  0  0  0
   16.8833  115.4318   55.2755  H    0  0  0  0  0  0
   24.4006  113.8980   56.7690  H    0  0  0  0  0  0
   22.3998  113.5577   58.3955  H    0  0  0  0  0  0
   21.8840  111.1162   56.8136  H    0  0  0  0  0  0
   20.2098  113.5981   57.2493  H    0  0  0  0  0  0
   21.6368  112.3313   54.9390  H    0  0  0  0  0  0
   21.6535  114.5159   53.6478  H    0  0  0  0  0  0
   20.0660  113.8204   53.7965  H    0  0  0  0  0  0
   28.0092  110.9543   52.4924  H    0  0  0  0  0  0
   27.5690  110.6168   54.9762  H    0  0  0  0  0  0
   24.6881  110.0937   54.1550  H    0  0  0  0  0  0
   25.9294  112.3480   55.9052  H    0  0  0  0  0  0
   24.8224  112.4997   53.0210  H    0  0  0  0  0  0
   25.7458  114.8388   53.1807  H    0  0  0  0  0  0
   24.4782  114.6164   54.3391  H    0  0  0  0  0  0
   25.8725  110.4741   46.7222  H    0  0  0  0  0  0
   27.2895  109.5071   48.1834  H    0  0  0  0  0  0
   25.0309  109.3357   50.0085  H    0  0  0  0  0  0
   27.4553  111.0855   50.3712  H    0  0  0  0  0  0
   24.7135  112.0534   49.8074  H    0  0  0  0  0  0
   26.0141  113.9001   51.1056  H    0  0  0  0  0  0
   27.4557  113.6256   50.1863  H    0  0  0  0  0  0
   19.7657  109.1587   45.8920  H    0  0  0  0  0  0
   21.6950  107.7608   46.4467  H    0  0  0  0  0  0
   22.0819  109.4522   48.8813  H    0  0  0  0  0  0
   23.8348  109.3215   46.4277  H    0  0  0  0  0  0
   22.1540  111.7131   47.2081  H    0  0  0  0  0  0
   24.0539  112.2831   45.8451  H    0  0  0  0  0  0
   22.8004  112.4418   44.7972  H    0  0  0  0  0  0
  1  2  1  0  0  0
  1 47  1  0  0  0
  1 53  1  0  0  0
  1143  1  0  0  0
  2  3  1  0  0  0
  2 43  1  0  0  0
  2144  1  0  0  0
  3  4  1  0  0  0
  3 44  1  0  0  0
  3145  1  0  0  0
  4  5  1  0  0  0
  4 46  1  0  0  0
  4146  1  0  0  0
  5  6  1  0  0  0
  5 47  1  0  0  0
  5147  1  0  0  0
  6 48  1  0  0  0
  6148  1  0  0  0
  6149  1  0  0  0
  7  8  1  0  0  0
  7 54  1  0  0  0
  7 60  1  0  0  0
  7150  1  0  0  0
  8  9  1  0  0  0
  8 50  1  0  0  0
  8151  1  0  0  0
  9 10  1  0  0  0
  9 51  1  0  0  0
  9152  1  0  0  0
 10 11  1  0  0  0
 10 53  1  0  0  0
 10153  1  0  0  0
 11 12  1  0  0  0
 11 54  1  0  0  0
 11154  1  0  0  0
 12 55  1  0  0  0
 12 92  1  0  0  0
 12 93  1  0  0  0
 13 14  1  0  0  0
 13 61  1  0  0  0
 13 67  1  0  0  0
 13155  1  0  0  0
 14 15  1  0  0  0
 14 57  1  0  0  0
 14156  1  0  0  0
 15 16  1  0  0  0
 15 58  1  0  0  0
 15157  1  0  0  0
 16 17  1  0  0  0
 16 60  1  0  0  0
 16158  1  0  0  0
 17 18  1  0  0  0
 17 61  1  0  0  0
 17159  1  0  0  0
 18 62  1  0  0  0
 18160  1  0  0  0
 18161  1  0  0  0
 19 20  1  0  0  0
 19 68  1  0  0  0
 19 74  1  0  0  0
 19162  1  0  0  0
 20 21  1  0  0  0
 20 64  1  0  0  0
 20163  1  0  0  0
 21 22  1  0  0  0
 21 65  1  0  0  0
 21164  1  0  0  0
 22 23  1  0  0  0
 22 67  1  0  0  0
 22165  1  0  0  0
 23 24  1  0  0  0
 23 68  1  0  0  0
 23166  1  0  0  0
 24 69  1  0  0  0
 24167  1  0  0  0
 24168  1  0  0  0
 25 26  1  0  0  0
 25 75  1  0  0  0
 25 81  1  0  0  0
 25169  1  0  0  0
 26 27  1  0  0  0
 26 71  1  0  0  0
 26170  1  0  0  0
 27 28  1  0  0  0
 27 72  1  0  0  0
 27171  1  0  0  0
 28 29  1  0  0  0
 28 74  1  0  0  0
 28172  1  0  0  0
 29 30  1  0  0  0
 29 75  1  0  0  0
 29173  1  0  0  0
 30 76  1  0  0  0
 30174  1  0  0  0
 30175  1  0  0  0
 31 32  1  0  0  0
 31 82  1  0  0  0
 31 88  1  0  0  0
 31176  1  0  0  0
 32 33  1  0  0  0
 32 78  1  0  0  0
 32177  1  0  0  0
 33 34  1  0  0  0
 33 79  1  0  0  0
 33178  1  0  0  0
 34 35  1  0  0  0
 34 81  1  0  0  0
 34179  1  0  0  0
 35 36  1  0  0  0
 35 82  1  0  0  0
 35180  1  0  0  0
 36 83  1  0  0  0
 36181  1  0  0  0
 36182  1  0  0  0
 37 38  1  0  0  0
 37 46  1  0  0  0
 37 89  1  0  0  0
 37183  1  0  0  0
 38 39  1  0  0  0
 38 85  1  0  0  0
 38184  1  0  0  0
 39 40  1  0  0  0
 39 86  1  0  0  0
 39185  1  0  0  0
 40 41  1  0  0  0
 40 88  1  0  0  0
 40186  1  0  0  0
 41 42  1  0  0  0
 41 89  1  0  0  0
 41187  1  0  0  0
 42 90  1  0  0  0
 42188  1  0  0  0
 42189  1  0  0  0
 43 94  1  0  0  0
 44 45  1  0  0  0
 45 95  1  0  0  0
 45 96  1  0  0  0
 45 97  1  0  0  0
 48 49  1  0  0  0
 49 98  1  0  0  0
 49 99  1  0  0  0
 49100  1  0  0  0
 50101  1  0  0  0
 51 52  1  0  0  0
 52102  1  0  0  0
 52103  1  0  0  0
 52104  1  0  0  0
 55 56  1  0  0  0
 56105  1  0  0  0
 56106  1  0  0  0
 56107  1  0  0  0
 57108  1  0  0  0
 58 59  1  0  0  0
 59109  1  0  0  0
 59110  1  0  0  0
 59111  1  0  0  0
 62 63  1  0  0  0
 63112  1  0  0  0
 63113  1  0  0  0
 63114  1  0  0  0
 64115  1  0  0  0
 65 66  1  0  0  0
 66116  1  0  0  0
 66117  1  0  0  0
 66118  1  0  0  0
 69 70  1  0  0  0
 70119  1  0  0  0
 70120  1  0  0  0
 70121  1  0  0  0
 71122  1  0  0  0
 72 73  1  0  0  0
 73123  1  0  0  0
 73124  1  0  0  0
 73125  1  0  0  0
 76 77  1  0  0  0
 77126  1  0  0  0
 77127  1  0  0  0
 77128  1  0  0  0
 78129  1  0  0  0
 79 80  1  0  0  0
 80130  1  0  0  0
 80131  1  0  0  0
 80132  1  0  0  0
 83 84  1  0  0  0
 84133  1  0  0  0
 84134  1  0  0  0
 84135  1  0  0  0
 85136  1  0  0  0
 86 87  1  0  0  0
 87137  1  0  0  0
 87138  1  0  0  0
 87139  1  0  0  0
 90 91  1  0  0  0
 91140  1  0  0  0
 91141  1  0  0  0
 91142  1  0  0  0
M  END
> <s_m_entry_id>
14

> <s_m_Source_Path>
/home/emilio/Dropbox/sims/SAMPL9/work/receptor

> <s_m_Source_File>
bCDH26DM.mol2

> <i_m_Source_File_Index>
1

$$$$

