@<TRIPOS>MOLECULE
LIG
189 196
SMALL
USER_CHARGES
@<TRIPOS>ATOM
      1 C1         21.5079  111.0643   43.2123 aa             2 LIG     0.430935
      2 C2         20.7376  110.1789   42.1511 ab             1 LIG     0.207656
      3 C3         21.4834  108.7902   42.0460 ad             2 LIG     0.188798
      4 C4         23.0077  108.8900   41.8674 ae             1 LIG     0.195488
      5 C5         23.6331  109.8026   42.9340 af             1 LIG     0.195488
      6 C6         25.1369  110.0570   42.7215 ah             0 LIG     0.166225
      7 C7         19.8950  111.4772   48.3664 ai             2 LIG     0.430935
      8 C8         18.9443  110.8407   47.3539 aj             1 LIG     0.207656
      9 C9         19.7293  110.0942   46.1956 ak             2 LIG     0.188798
     10 C10        20.5528  111.2203   45.5166 an             1 LIG     0.195488
     11 C11        21.5651  111.8623   46.5161 ao             1 LIG     0.195488
     12 C12        22.3180  113.0655   45.9608 ap             0 LIG     0.166225
     13 C13        22.6911  109.3754   52.3580 aq             2 LIG     0.430935
     14 C14        21.1473  108.9780   52.2772 av             1 LIG     0.207656
     15 C15        20.7134  108.9960   50.7977 aw             2 LIG     0.188798
     16 C16        21.0172  110.4719   50.3812 ax             1 LIG     0.195488
     17 C17        22.4772  110.9466   50.4873 ay             1 LIG     0.195488
     18 C18        22.7930  112.3379   49.9218 az             0 LIG     0.166225
     19 C19        27.1205  106.2287   52.1378 bb             2 LIG     0.430935
     20 C20        26.1816  106.2444   53.3747 bc             1 LIG     0.207656
     21 C21        24.8022  106.8343   53.1124 bd             2 LIG     0.188798
     22 C22        24.8545  108.1411   52.1892 bf             1 LIG     0.195488
     23 C23        25.8036  107.8142   50.9187 bg             1 LIG     0.195488
     24 C24        25.8789  109.0045   49.9422 bh             0 LIG     0.166225
     25 C25        28.8208  102.6273   48.5498 bj             2 LIG     0.430935
     26 C26        28.0534  101.8904   49.6861 bk             1 LIG     0.207656
     27 C27        27.0865  102.8772   50.4352 bl             2 LIG     0.188798
     28 C28        27.7692  104.2050   50.8546 bm             1 LIG     0.195488
     29 C29        28.6060  104.8030   49.6782 bn             1 LIG     0.195488
     30 C30        29.5660  105.9514   50.1499 bo             0 LIG     0.166225
     31 C31        27.4384  103.1617   43.4248 bp             2 LIG     0.430935
     32 C32        27.0774  101.8385   44.1246 bq             1 LIG     0.207656
     33 C33        26.9711  102.1233   45.6881 bs             2 LIG     0.188798
     34 C34        28.1812  102.7620   46.2132 bt             1 LIG     0.195488
     35 C35        28.6388  103.9820   45.4214 bu             1 LIG     0.195488
     36 C36        30.0528  104.4176   45.8657 bv             0 LIG     0.166225
     37 C37        24.0746  106.7796   41.0870 bw             1 LIG     0.430935
     38 C38        23.6725  105.3144   41.2214 bx             1 LIG     0.207656
     39 C39        24.3415  104.5834   42.3983 by             2 LIG     0.188798
     40 C40        25.8413  104.7155   42.3676 bz             1 LIG     0.195488
     41 C41        26.1803  106.2281   42.2532 cb             1 LIG     0.195488
     42 C42        27.7420  106.3681   42.1158 ci             0 LIG     0.166225
     43 O1         19.2591  109.9684   42.5164 cj             0 LIG     -0.735959
     44 O2         20.9120  107.9520   41.0434 ck             0 LIG     -0.511627
     45 C43        21.1018  108.3223   39.6137 cm             0 LIG     0.074802
     46 O3         23.5888  107.5502   42.1823 cn             0 LIG     -0.542414
     47 O4         22.9415  111.0933   42.9283 ct             0 LIG     -0.542414
     48 O5         25.4453  110.2173   41.3226 cw             0 LIG     -0.511627
     49 C44        26.8520  110.0071   40.9997 da             0 LIG     0.074802
     50 O6         17.9666  109.9760   48.0813 db             0 LIG     -0.735959
     51 O7         18.7637  109.6940   45.1922 dc             0 LIG     -0.511627
     52 C45        18.3237  108.3090   45.2687 dd             0 LIG     0.074802
     53 O8         21.4277  110.5543   44.5249 de             0 LIG     -0.542414
     54 O9         20.8014  112.3444   47.6701 df             0 LIG     -0.542414
     55 O10        22.7327  113.8624   46.9866 dg             0 LIG     -0.511627
     56 C46        22.9684  115.2589   46.5877 dh             0 LIG     0.074802
     57 O11        20.9761  107.5726   52.7937 di             0 LIG     -0.735959
     58 O12        19.2921  108.7241   50.7057 dj             0 LIG     -0.511627
     59 C47        18.9849  107.2934   50.3041 dk             0 LIG     0.074802
     60 O13        20.6615  110.4418   48.9364 dl             0 LIG     -0.542414
     61 O14        22.9217  110.6988   51.8391 dm             0 LIG     -0.542414
     62 O15        23.8763  112.9414   50.6914 dn             0 LIG     -0.511627
     63 C48        24.3083  114.2598   50.0999 do             0 LIG     0.074802
     64 O16        26.1411  104.9053   53.9903 dp             0 LIG     -0.735959
     65 O17        24.0294  107.2346   54.3537 dq             0 LIG     -0.511627
     66 C49        23.5700  106.2485   55.3341 dr             0 LIG     0.074802
     67 O18        23.4820  108.4054   51.5600 ds             0 LIG     -0.542414
     68 O19        27.0983  107.4794   51.4155 dt             0 LIG     -0.542414
     69 O20        26.1417  110.2891   50.6384 dv             0 LIG     -0.511627
     70 C50        26.5438  111.4584   49.7439 dw             0 LIG     0.074802
     71 O21        27.3093  100.8141   49.0829 dx             0 LIG     -0.735959
     72 O22        26.5310  102.1844   51.5363 dz             0 LIG     -0.511627
     73 C51        27.3391  101.6863   52.6455 ea             0 LIG     0.074802
     74 O23        26.7369  105.1204   51.2231 eb             0 LIG     -0.542414
     75 O24        29.4680  103.7906   49.1223 ec             0 LIG     -0.542414
     76 O25        30.3063  105.4222   51.2998 ed             0 LIG     -0.511627
     77 C52        31.3305  106.1786   51.9637 ee             0 LIG     0.074802
     78 O26        25.7869  101.3264   43.5896 ef             0 LIG     -0.735959
     79 O27        26.6590  100.8783   46.4191 eg             0 LIG     -0.511627
     80 C53        25.2489  100.6088   46.7154 eh             0 LIG     0.074802
     81 O28        27.8437  103.0332   47.5677 ei             0 LIG     -0.542414
     82 O29        28.6323  103.7422   44.0036 ej             0 LIG     -0.542414
     83 O30        30.9718  103.4185   45.4260 ek             0 LIG     -0.511627
     84 C54        32.2870  103.5387   46.0342 el             0 LIG     0.074802
     85 O31        22.2727  105.2270   41.2709 em             0 LIG     -0.735959
     86 O32        24.0949  103.1504   42.4307 en             0 LIG     -0.511627
     87 C55        23.0506  102.6563   43.2486 eo             0 LIG     0.074802
     88 O33        26.4045  104.1325   43.5817 eq             0 LIG     -0.542414
     89 O34        25.5209  106.8379   41.0702 es             0 LIG     -0.542414
     90 O35        28.2663  105.8379   40.8282 et             0 LIG     -0.511627
     91 C56        29.5927  105.2778   40.8300 ev             0 LIG     0.074802
     92 H1         21.4563  113.5444   45.3858 ew             0 LIG     0.056965
     93 H2         23.1018  112.8948   45.2888 ex             0 LIG     0.056965
     94 H3         19.3003  109.9476   43.5499 ey             0 LIG     0.497876
     95 H4         20.6020  109.2020   39.3130 ez             0 LIG     0.066990
     96 H5         20.8544  107.5477   38.8310 fa             0 LIG     0.066990
     97 H6         22.1262  108.5585   39.4411 fb             0 LIG     0.066990
     98 H7         27.4786  110.7511   41.4635 fc             0 LIG     0.066990
     99 H8         26.9118  110.0356   39.9175 fd             0 LIG     0.066990
    100 H9         27.1646  109.0700   41.3975 ff             0 LIG     0.066990
    101 H10        18.4890  109.5901   48.8037 fg             0 LIG     0.497876
    102 H11        17.5277  108.0471   44.5152 fh             0 LIG     0.066990
    103 H12        17.9352  108.1314   46.2561 fi             0 LIG     0.066990
    104 H13        19.1278  107.5937   44.9251 fj             0 LIG     0.066990
    105 H14        22.4467  115.9665   47.2614 fk             0 LIG     0.066990
    106 H15        22.6203  115.3960   45.6027 fl             0 LIG     0.066990
    107 H16        24.0284  115.4474   46.5697 fm             0 LIG     0.066990
    108 H17        21.5570  107.0632   52.1893 fn             0 LIG     0.497876
    109 H18        19.3304  107.1500   49.2689 fo             0 LIG     0.066990
    110 H19        17.8987  107.0979   50.3030 fp             0 LIG     0.066990
    111 H20        19.5128  106.5364   50.9018 fq             0 LIG     0.066990
    112 H21        25.2522  114.5721   50.5843 fs             0 LIG     0.066990
    113 H22        23.5104  115.0135   50.1077 ft             0 LIG     0.066990
    114 H23        24.5622  114.1373   49.0664 fu             0 LIG     0.066990
    115 H24        27.1130  104.6827   54.1857 fv             0 LIG     0.497876
    116 H25        24.4070  106.0389   55.9880 fw             0 LIG     0.066990
    117 H26        23.0740  105.4115   54.9050 fx             0 LIG     0.066990
    118 H27        22.7838  106.7335   55.9971 fy             0 LIG     0.066990
    119 H28        27.5907  111.3786   49.5165 fz             0 LIG     0.066990
    120 H29        26.4718  112.3785   50.2586 gb             0 LIG     0.066990
    121 H30        25.9058  111.3493   48.8117 gc             0 LIG     0.066990
    122 H31        27.1088  101.2702   48.2112 gf             0 LIG     0.497876
    123 H32        28.1690  100.9589   52.4026 gg             0 LIG     0.066990
    124 H33        26.7181  101.2012   53.3931 gh             0 LIG     0.066990
    125 H34        27.7948  102.5049   53.2320 gi             0 LIG     0.066990
    126 H35        32.0675  106.6211   51.2762 gj             0 LIG     0.066990
    127 H36        31.8465  105.4650   52.6726 gk             0 LIG     0.066990
    128 H37        30.8221  106.9917   52.4307 gl             0 LIG     0.066990
    129 H38        25.1311  102.0249   43.1997 gm             0 LIG     0.497876
    130 H39        25.0972   99.7088   47.2173 gn             0 LIG     0.066990
    131 H40        24.4943  100.5748   45.8671 go             0 LIG     0.066990
    132 H41        24.8030  101.4442   47.2582 gp             0 LIG     0.066990
    133 H42        32.9260  102.7640   45.6423 gq             0 LIG     0.066990
    134 H43        32.2190  103.3006   47.1001 gr             0 LIG     0.066990
    135 H44        32.7517  104.5579   46.0144 gs             0 LIG     0.066990
    136 H45        21.9059  105.5134   42.1441 gt             0 LIG     0.497876
    137 H46        23.0416  101.5925   43.0927 gu             0 LIG     0.066990
    138 H47        22.0130  103.0696   43.0244 gv             0 LIG     0.066990
    139 H48        23.3169  102.8187   44.3462 gw             0 LIG     0.066990
    140 H49        29.6406  104.5892   41.6683 gx             0 LIG     0.066990
    141 H50        30.2812  106.0845   41.0376 gy             0 LIG     0.066990
    142 H51        29.7722  104.8125   39.8495 gz             0 LIG     0.066990
    143 H52        21.1949  112.1119   43.1361 hb             0 LIG     0.060700
    144 H53        20.6763  110.7896   41.2418 hd             0 LIG     0.055736
    145 H54        21.4663  108.2337   42.9912 hh             0 LIG     0.078119
    146 H55        23.3238  109.2369   40.8759 hi             0 LIG     0.050773
    147 H56        23.5377  109.3485   43.9281 hj             0 LIG     0.050773
    148 H57        25.4015  110.8958   43.3770 hk             0 LIG     0.056965
    149 H58        25.6424  109.1711   43.1254 hl             0 LIG     0.056965
    150 H59        19.3640  112.0028   49.1684 hm             0 LIG     0.060700
    151 H60        18.3987  111.6401   46.8375 hq             0 LIG     0.055736
    152 H61        20.3337  109.2275   46.4905 hr             0 LIG     0.078119
    153 H62        19.9587  112.0321   45.0789 ht             0 LIG     0.050773
    154 H63        22.1857  111.0496   46.9131 hu             0 LIG     0.050773
    155 H64        22.9149  109.3524   53.4307 hv             0 LIG     0.060700
    156 H65        20.6201  109.6418   52.9736 hy             0 LIG     0.055736
    157 H66        21.2287  108.1511   50.3244 hz             0 LIG     0.078119
    158 H67        20.3363  111.1670   50.9352 ia             0 LIG     0.050773
    159 H68        22.9728  110.1571   49.8471 ib             0 LIG     0.050773
    160 H69        21.9054  112.9759   49.7956 ic             0 LIG     0.056965
    161 H70        23.0907  112.0636   48.8659 id             0 LIG     0.056965
    162 H71        28.1361  106.0151   52.4403 ie             0 LIG     0.060700
    163 H72        26.6990  106.9402   54.1129 if             0 LIG     0.055736
    164 H73        24.2864  105.9997   52.6162 ig             0 LIG     0.078119
    165 H74        25.1757  108.9626   52.8251 ih             0 LIG     0.050773
    166 H75        25.3395  106.8914   50.4367 ii             0 LIG     0.050773
    167 H76        26.6840  108.7808   49.2125 ij             0 LIG     0.056965
    168 H77        24.8897  109.0609   49.5514 ik             0 LIG     0.056965
    169 H78        29.5786  101.9777   48.1315 il             0 LIG     0.060700
    170 H79        28.7704  101.5241   50.4558 im             0 LIG     0.055736
    171 H80        26.2384  103.1028   49.7429 io             0 LIG     0.078119
    172 H81        28.3891  104.0463   51.7416 ip             0 LIG     0.050773
    173 H82        27.8887  105.1277   48.8946 iq             0 LIG     0.050773
    174 H83        30.2321  106.1225   49.3142 is             0 LIG     0.056965
    175 H84        29.0891  106.8467   50.3328 it             0 LIG     0.056965
    176 H85        27.6396  102.9872   42.3977 iu             0 LIG     0.060700
    177 H86        27.9333  101.1642   43.7983 iv             0 LIG     0.055736
    178 H87        26.1740  102.8961   45.8424 iw             0 LIG     0.078119
    179 H88        28.9489  102.0135   46.1453 ix             0 LIG     0.050773
    180 H89        27.9396  104.7708   45.5092 iy             0 LIG     0.050773
    181 H90        30.3393  105.3400   45.3003 iz             0 LIG     0.056965
    182 H91        30.1288  104.6616   46.9623 ja             0 LIG     0.056965
    183 H92        23.6395  107.2487   40.2595 jb             0 LIG     0.060700
    184 H93        23.9255  104.8048   40.3636 jc             0 LIG     0.055736
    185 H94        23.9657  105.1173   43.2509 jd             0 LIG     0.078119
    186 H95        26.1884  104.2157   41.4957 je             0 LIG     0.050773
    187 H96        25.7628  106.6782   43.1198 jf             0 LIG     0.050773
    188 H97        28.3089  105.8576   42.9464 jg             0 LIG     0.056965
    189 H98        27.9506  107.4211   42.2003 jh             0 LIG     0.056965
@<TRIPOS>BOND
        1  1  2  1
        2  1  47  1
        3  1  53  1
        4  1  143  1
        5  2  3  1
        6  2  43  1
        7  2  144  1
        8  3  4  1
        9  3  44  1
        10  3  145  1
        11  4  5  1
        12  4  46  1
        13  4  146  1
        14  5  6  1
        15  5  47  1
        16  5  147  1
        17  6  48  1
        18  6  148  1
        19  6  149  1
        20  7  8  1
        21  7  54  1
        22  7  60  1
        23  7  150  1
        24  8  9  1
        25  8  50  1
        26  8  151  1
        27  9  10  1
        28  9  51  1
        29  9  152  1
        30  10  11  1
        31  10  53  1
        32  10  153  1
        33  11  12  1
        34  11  54  1
        35  11  154  1
        36  12  55  1
        37  12  92  1
        38  12  93  1
        39  13  14  1
        40  13  61  1
        41  13  67  1
        42  13  155  1
        43  14  15  1
        44  14  57  1
        45  14  156  1
        46  15  16  1
        47  15  58  1
        48  15  157  1
        49  16  17  1
        50  16  60  1
        51  16  158  1
        52  17  18  1
        53  17  61  1
        54  17  159  1
        55  18  62  1
        56  18  160  1
        57  18  161  1
        58  19  20  1
        59  19  68  1
        60  19  74  1
        61  19  162  1
        62  20  21  1
        63  20  64  1
        64  20  163  1
        65  21  22  1
        66  21  65  1
        67  21  164  1
        68  22  23  1
        69  22  67  1
        70  22  165  1
        71  23  24  1
        72  23  68  1
        73  23  166  1
        74  24  69  1
        75  24  167  1
        76  24  168  1
        77  25  26  1
        78  25  75  1
        79  25  81  1
        80  25  169  1
        81  26  27  1
        82  26  71  1
        83  26  170  1
        84  27  28  1
        85  27  72  1
        86  27  171  1
        87  28  29  1
        88  28  74  1
        89  28  172  1
        90  29  30  1
        91  29  75  1
        92  29  173  1
        93  30  76  1
        94  30  174  1
        95  30  175  1
        96  31  32  1
        97  31  82  1
        98  31  88  1
        99  31  176  1
        100  32  33  1
        101  32  78  1
        102  32  177  1
        103  33  34  1
        104  33  79  1
        105  33  178  1
        106  34  35  1
        107  34  81  1
        108  34  179  1
        109  35  36  1
        110  35  82  1
        111  35  180  1
        112  36  83  1
        113  36  181  1
        114  36  182  1
        115  37  38  1
        116  37  46  1
        117  37  89  1
        118  37  183  1
        119  38  39  1
        120  38  85  1
        121  38  184  1
        122  39  40  1
        123  39  86  1
        124  39  185  1
        125  40  41  1
        126  40  88  1
        127  40  186  1
        128  41  42  1
        129  41  89  1
        130  41  187  1
        131  42  90  1
        132  42  188  1
        133  42  189  1
        134  43  94  1
        135  44  45  1
        136  45  95  1
        137  45  96  1
        138  45  97  1
        139  48  49  1
        140  49  98  1
        141  49  99  1
        142  49  100  1
        143  50  101  1
        144  51  52  1
        145  52  102  1
        146  52  103  1
        147  52  104  1
        148  55  56  1
        149  56  105  1
        150  56  106  1
        151  56  107  1
        152  57  108  1
        153  58  59  1
        154  59  109  1
        155  59  110  1
        156  59  111  1
        157  62  63  1
        158  63  112  1
        159  63  113  1
        160  63  114  1
        161  64  115  1
        162  65  66  1
        163  66  116  1
        164  66  117  1
        165  66  118  1
        166  69  70  1
        167  70  119  1
        168  70  120  1
        169  70  121  1
        170  71  122  1
        171  72  73  1
        172  73  123  1
        173  73  124  1
        174  73  125  1
        175  76  77  1
        176  77  126  1
        177  77  127  1
        178  77  128  1
        179  78  129  1
        180  79  80  1
        181  80  130  1
        182  80  131  1
        183  80  132  1
        184  83  84  1
        185  84  133  1
        186  84  134  1
        187  84  135  1
        188  85  136  1
        189  86  87  1
        190  87  137  1
        191  87  138  1
        192  87  139  1
        193  90  91  1
        194  91  140  1
        195  91  141  1
        196  91  142  1
@<TRIPOS>SUBSTRUCTURE
       1 LIG             1 RESIDUE    0 **** ROOT      0

