PMT1appS
                    3D
 Structure written by MMmdl.
 41 43  0  0  1  0            999 V2000
   23.1356  110.2929   45.4631 C   0  0  0  0  0  0
   26.0555  113.3505   39.7212 C   0  0  0  0  0  0
   22.0019  111.1287   45.4009 C   0  0  0  0  0  0
   25.0487  114.3318   39.6305 C   0  0  0  0  0  0
   24.3485  110.6807   44.8593 C   0  0  0  0  0  0
   26.2789  112.6599   40.9397 C   0  0  0  0  0  0
   22.0940  112.3717   44.7442 C   0  0  0  0  0  0
   24.2805  114.6440   40.7606 C   0  0  0  0  0  0
   24.4165  111.8631   44.0840 C   0  0  0  0  0  0
   25.4705  112.9319   42.0673 C   0  0  0  0  0  0
   23.2962  112.7322   44.1049 C   0  0  0  0  0  0
   24.4827  113.9454   41.9628 C   0  0  0  0  0  0
   27.1764  113.0555   46.2630 C   0  0  0  0  0  0
   27.8499  114.7969   42.9113 C   0  0  0  0  0  0
   27.1809  115.6460   45.1059 C   0  0  0  0  0  0
   26.9113  112.1422   43.7285 C   0  0  0  0  0  0
   27.4962  113.1552   44.7427 C   0  0  1  0  0  0
   25.5332  112.1911   43.2748 N   0  0  0  0  0  0
   27.1278  114.4977   44.1709 N   0  3  0  0  0  0
   23.3994  114.2884   43.3006 S   0  0  0  0  0  0
   23.0599  109.3336   45.9578 H   0  0  0  0  0  0
   26.6099  113.0929   38.8279 H   0  0  0  0  0  0
   21.0688  110.8158   45.8536 H   0  0  0  0  0  0
   24.8361  114.8317   38.6918 H   0  0  0  0  0  0
   25.1899  110.0196   44.9528 H   0  0  0  0  0  0
   27.0232  111.8779   40.9352 H   0  0  0  0  0  0
   21.2397  113.0281   44.7094 H   0  0  0  0  0  0
   23.4783  115.3668   40.7079 H   0  0  0  0  0  0
   27.2722  112.0580   46.6640 H   0  0  0  0  0  0
   26.1776  113.3882   46.5255 H   0  0  0  0  0  0
   27.8986  113.6227   46.8528 H   0  0  0  0  0  0
   28.9205  114.9125   43.0927 H   0  0  0  0  0  0
   27.4912  115.7275   42.4572 H   0  0  0  0  0  0
   27.7207  114.0176   42.1551 H   0  0  0  0  0  0
   28.1722  115.7473   45.5411 H   0  0  0  0  0  0
   26.4525  115.5563   45.9091 H   0  0  0  0  0  0
   26.9440  116.5822   44.5933 H   0  0  0  0  0  0
   27.5242  112.2038   42.8128 H   0  0  0  0  0  0
   26.8810  111.1326   44.1588 H   0  0  0  0  0  0
   28.5781  113.0593   44.6704 H   0  0  0  0  0  0
   26.1526  114.4100   43.9141 H   0  0  0  0  0  0
  1  3  2  0  0  0
  1  5  1  0  0  0
  1 21  1  0  0  0
  2  4  2  0  0  0
  2  6  1  0  0  0
  2 22  1  0  0  0
  3  7  1  0  0  0
  3 23  1  0  0  0
  4  8  1  0  0  0
  4 24  1  0  0  0
  5  9  2  0  0  0
  5 25  1  0  0  0
  6 10  2  0  0  0
  6 26  1  0  0  0
  7 11  2  0  0  0
  7 27  1  0  0  0
  8 12  2  0  0  0
  8 28  1  0  0  0
  9 11  1  0  0  0
  9 18  1  0  0  0
 10 12  1  0  0  0
 10 18  1  0  0  0
 11 20  1  0  0  0
 12 20  1  0  0  0
 13 17  1  0  0  0
 13 29  1  0  0  0
 13 30  1  0  0  0
 13 31  1  0  0  0
 14 19  1  0  0  0
 14 32  1  0  0  0
 14 33  1  0  0  0
 14 34  1  0  0  0
 15 19  1  0  0  0
 15 35  1  0  0  0
 15 36  1  0  0  0
 15 37  1  0  0  0
 16 17  1  0  0  0
 16 18  1  0  0  0
 16 38  1  0  0  0
 16 39  1  0  0  0
 17 19  1  0  0  0
 17 40  1  0  0  0
 19 41  1  0  0  0
M  CHG  1  19   1
M  END
> <s_m_entry_id>
537

> <s_m_entry_name>
PMT1appS.1

> <s_m_Source_Path>
/home/emilio/Dropbox/SAMPL9-eglab/mCD/ligsdfs

> <s_m_Source_File>
PMT1appS.sdf

> <i_m_Source_File_Index>
1

> <r_epik_Ionization_Penalty>
  0.0045

> <r_epik_State_Penalty>
  0.0032

> <i_epik_Tot_Q>
1

> <s_m_job_name>
ligprep_4

> <chiral flag>
1

> <version>
0

> <i_f3d_flags>
0

> <s_m_subgroup_title>
bCDq->ppS_copy1

> <s_m_subgroupid>
bCDq_copy1->ppS1_copy1_copy1

> <b_m_subgroup_collapsed>
0

$$$$
