PMZ1appS
                    3D
 Structure written by MMmdl.
 41 43  0  0  1  0            999 V2000
   23.0924  110.1733   45.3320 C   0  0  0  0  0  0
   26.0717  113.3301   39.7279 C   0  0  0  0  0  0
   22.1217  111.1246   45.5513 C   0  0  0  0  0  0
   25.2462  114.5036   39.7150 C   0  0  0  0  0  0
   24.2347  110.5696   44.5275 C   0  0  0  0  0  0
   26.0850  112.4565   40.8523 C   0  0  0  0  0  0
   22.2957  112.3875   44.8818 C   0  0  0  0  0  0
   24.4528  114.7754   40.8392 C   0  0  0  0  0  0
   24.3902  111.8226   43.9449 C   0  0  0  0  0  0
   25.2918  112.8105   42.0042 C   0  0  0  0  0  0
   23.3756  112.7399   44.0883 C   0  0  0  0  0  0
   24.4014  113.9240   41.9044 C   0  0  0  0  0  0
   28.4116  115.5563   45.8871 C   0  0  0  0  0  0
   27.7480  116.8097   43.8617 C   0  0  0  0  0  0
   27.1158  113.1459   44.7910 C   0  0  0  0  0  0
   26.7971  112.0621   43.7445 C   0  0  0  0  0  0
   26.9268  114.5790   44.1581 C   0  0  0  0  0  0
   25.5056  112.1557   43.1939 N   0  0  0  0  0  0
   27.2978  115.8531   44.9055 N   0  3  0  0  0  0
   23.3930  114.2802   43.3296 S   0  0  0  0  0  0
   23.2636  109.2311   45.8413 H   0  0  0  0  0  0
   26.6154  113.1536   38.7786 H   0  0  0  0  0  0
   21.2870  110.8471   46.1861 H   0  0  0  0  0  0
   25.3551  115.1323   38.7927 H   0  0  0  0  0  0
   25.0111  109.8355   44.4492 H   0  0  0  0  0  0
   26.6992  111.5180   40.8085 H   0  0  0  0  0  0
   21.5715  113.1840   45.0605 H   0  0  0  0  0  0
   23.8830  115.6685   40.8717 H   0  0  0  0  0  0
   28.5736  116.3719   46.4757 H   0  0  0  0  0  0
   29.3084  115.3359   45.3688 H   0  0  0  0  0  0
   28.2921  114.6542   46.4719 H   0  0  0  0  0  0
   28.1243  117.7593   44.3358 H   0  0  0  0  0  0
   26.8154  117.0443   43.3024 H   0  0  0  0  0  0
   28.4633  116.3389   43.2327 H   0  0  0  0  0  0
   26.5101  112.9173   45.7168 H   0  0  0  0  0  0
   28.1232  113.0583   45.1695 H   0  0  0  0  0  0
   27.5723  111.8893   42.9288 H   0  0  0  0  0  0
   26.8148  111.1395   44.2889 H   0  0  0  0  0  0
   27.7551  114.6116   43.4071 H   0  0  0  0  0  0
   25.9906  114.6779   43.6779 H   0  0  0  0  0  0
   26.5421  116.2814   45.4979 H   0  0  0  0  0  0
  1  3  2  0  0  0
  1  5  1  0  0  0
  1 21  1  0  0  0
  2  4  2  0  0  0
  2  6  1  0  0  0
  2 22  1  0  0  0
  3  7  1  0  0  0
  3 23  1  0  0  0
  4  8  1  0  0  0
  4 24  1  0  0  0
  5  9  2  0  0  0
  5 25  1  0  0  0
  6 10  2  0  0  0
  6 26  1  0  0  0
  7 11  2  0  0  0
  7 27  1  0  0  0
  8 12  2  0  0  0
  8 28  1  0  0  0
  9 11  1  0  0  0
  9 18  1  0  0  0
 10 12  1  0  0  0
 10 18  1  0  0  0
 11 20  1  0  0  0
 12 20  1  0  0  0
 13 19  1  0  0  0
 13 29  1  0  0  0
 13 30  1  0  0  0
 13 31  1  0  0  0
 14 19  1  0  0  0
 14 32  1  0  0  0
 14 33  1  0  0  0
 14 34  1  0  0  0
 15 16  1  0  0  0
 15 17  1  0  0  0
 15 35  1  0  0  0
 15 36  1  0  0  0
 16 18  1  0  0  0
 16 37  1  0  0  0
 16 38  1  0  0  0
 17 19  1  0  0  0
 17 39  1  0  0  0
 17 40  1  0  0  0
 19 41  1  0  0  0
M  CHG  1  19   1
M  END
> <s_m_entry_id>
548

> <s_m_entry_name>
PMZ1appS-q.1

> <s_m_Source_Path>
/u1/users/egallicchio/Dropbox/sims/SAMPL9/work/FFEngine/postc/bCDppSf/ligands

> <s_m_Source_File>
PMZ1appS-q.sdf

> <i_m_Source_File_Index>
1

> <r_epik_Ionization_Penalty>
  0.0034

> <r_epik_State_Penalty>
  0.0024

> <i_epik_Tot_Q>
1

> <s_m_job_name>
ligprep_4

> <chiral flag>
1

> <version>
0

> <i_f3d_flags>
0

> <s_m_subgroup_title>
bCDq->ppS_copy1

> <s_m_subgroupid>
bCDq_copy1->ppS1_copy1_copy1

> <b_m_subgroup_collapsed>
0

$$$$
