TDZNR1appS
                    3D
 Structure written by MMmdl.
 52 55  0  0  1  0            999 V2000
   23.0473  110.1197   45.2051 C   0  0  0  0  0  0
   21.9799  111.0326   45.2990 C   0  0  0  0  0  0
   24.2545  110.5005   44.5843 C   0  0  0  0  0  0
   22.1147  112.3294   44.7677 C   0  0  0  0  0  0
   24.3180  114.6824   40.7527 C   0  0  0  0  0  0
   25.1042  114.3634   39.6308 C   0  0  0  0  0  0
   26.2460  112.6353   40.9185 C   0  0  0  0  0  0
   24.3964  111.7959   44.0247 C   0  0  0  0  0  0
   25.4487  112.9305   42.0480 C   0  0  0  0  0  0
   23.3077  112.7029   44.1238 C   0  0  0  0  0  0
   24.4801  113.9607   41.9526 C   0  0  0  0  0  0
   26.0668  113.3429   39.7127 C   0  0  0  0  0  0
   28.3441  116.3284   43.6806 C   0  0  0  0  0  0
   28.7887  116.9274   44.9917 C   0  0  0  0  0  0
   28.2578  114.8292   43.9086 C   0  0  0  0  0  0
   27.8337  116.5008   46.1146 C   0  0  0  0  0  0
   27.3008  114.3584   44.9901 C   0  0  1  0  0  0
   26.9125  114.6504   47.4267 C   0  0  0  0  0  0
   26.1233  113.5801   36.8232 C   0  0  0  0  0  0
   27.2617  112.7993   45.0496 C   0  0  0  0  0  0
   26.7974  111.9867   43.7997 C   0  0  0  0  0  0
   25.4989  112.1480   43.2225 N   0  0  0  0  0  0
   27.7307  115.0144   46.2539 N   0  3  2  0  0  0
   23.4044  114.2750   43.3165 S   0  0  0  0  0  0
   26.9959  112.9228   38.2689 S   0  0  0  0  0  0
   22.9126  109.1069   45.5622 H   0  0  0  0  0  0
   21.0398  110.7223   45.7325 H   0  0  0  0  0  0
   25.0324  109.7621   44.4638 H   0  0  0  0  0  0
   21.2769  113.0072   44.7912 H   0  0  0  0  0  0
   23.5508  115.4383   40.6754 H   0  0  0  0  0  0
   24.9396  114.8671   38.6875 H   0  0  0  0  0  0
   26.9325  111.8057   40.9455 H   0  0  0  0  0  0
   27.3688  116.7043   43.3599 H   0  0  0  0  0  0
   29.0376  116.5489   42.8653 H   0  0  0  0  0  0
   29.8086  116.6106   45.2072 H   0  0  0  0  0  0
   28.8057  118.0073   44.8950 H   0  0  0  0  0  0
   27.7830  114.4942   43.0275 H   0  0  0  0  0  0
   29.2420  114.3621   43.9840 H   0  0  0  0  0  0
   28.1930  116.9283   47.0474 H   0  0  0  0  0  0
   26.8452  116.9191   45.9322 H   0  0  0  0  0  0
   26.3004  114.7124   44.7140 H   0  0  0  0  0  0
   25.8606  114.8755   47.2566 H   0  0  0  0  0  0
   27.2372  115.2042   48.3036 H   0  0  0  0  0  0
   27.0063  113.5946   47.6772 H   0  0  0  0  0  0
   26.6142  113.2415   35.9106 H   0  0  0  0  0  0
   26.1250  114.6703   36.8246 H   0  0  0  0  0  0
   25.0941  113.2240   36.8136 H   0  0  0  0  0  0
   28.1768  112.3943   45.4806 H   0  0  0  0  0  0
   26.4893  112.5602   45.7873 H   0  0  0  0  0  0
   27.4613  112.2641   42.9611 H   0  0  0  0  0  0
   26.9770  110.9112   43.9820 H   0  0  0  0  0  0
   28.6714  114.6880   46.4221 H   0  0  0  0  0  0
  1  2  2  0  0  0
  1  3  1  0  0  0
  1 26  1  0  0  0
  2  4  1  0  0  0
  2 27  1  0  0  0
  3  8  2  0  0  0
  3 28  1  0  0  0
  4 10  2  0  0  0
  4 29  1  0  0  0
  5  6  2  0  0  0
  5 11  1  0  0  0
  5 30  1  0  0  0
  6 12  1  0  0  0
  6 31  1  0  0  0
  7  9  1  0  0  0
  7 12  2  0  0  0
  7 32  1  0  0  0
  8 10  1  0  0  0
  8 22  1  0  0  0
  9 11  2  0  0  0
  9 22  1  0  0  0
 10 24  1  0  0  0
 11 24  1  0  0  0
 12 25  1  0  0  0
 13 14  1  0  0  0
 13 15  1  0  0  0
 13 33  1  0  0  0
 13 34  1  0  0  0
 14 16  1  0  0  0
 14 35  1  0  0  0
 14 36  1  0  0  0
 15 17  1  0  0  0
 15 37  1  0  0  0
 15 38  1  0  0  0
 16 23  1  0  0  0
 16 39  1  0  0  0
 16 40  1  0  0  0
 17 20  1  0  0  0
 17 23  1  0  0  0
 17 41  1  0  0  0
 18 23  1  0  0  0
 18 42  1  0  0  0
 18 43  1  0  0  0
 18 44  1  0  0  0
 19 25  1  0  0  0
 19 45  1  0  0  0
 19 46  1  0  0  0
 19 47  1  0  0  0
 20 21  1  0  0  0
 20 48  1  0  0  0
 20 49  1  0  0  0
 21 22  1  0  0  0
 21 50  1  0  0  0
 21 51  1  0  0  0
 23 52  1  0  0  0
M  CHG  1  23   1
M  END
> <s_m_entry_id>
541

> <s_m_entry_name>
TDZNR1appS.1

> <s_m_Source_Path>
/home/emilio/Dropbox/SAMPL9-eglab/mCD/ligsdfs

> <s_m_Source_File>
TDZNR1appS.sdf

> <i_m_Source_File_Index>
1

> <r_epik_Ionization_Penalty>
  0.0017

> <r_epik_State_Penalty>
  0.0011

> <i_epik_Tot_Q>
1

> <s_m_job_name>
ligprep_4

> <chiral flag>
1

> <version>
0

> <i_f3d_flags>
0

> <s_m_subgroup_title>
bCDq->ppS_copy1

> <s_m_subgroupid>
bCDq_copy1->ppS1_copy1_copy1

> <b_m_subgroup_collapsed>
0

$$$$
