TFP1bppS
                    3D
 Structure written by MMmdl.
 50 53  0  0  1  0            999 V2000
   22.8813  110.0573   44.9404 C   0  0  0  0  0  0
   21.8388  110.9979   45.0724 C   0  0  0  0  0  0
   24.1056  110.4337   44.3508 C   0  0  0  0  0  0
   22.0267  112.3177   44.6155 C   0  0  0  0  0  0
   24.2326  114.6130   40.7180 C   0  0  0  0  0  0
   25.0323  114.3008   39.6023 C   0  0  0  0  0  0
   26.2724  112.6792   40.9530 C   0  0  0  0  0  0
   24.3348  111.7630   43.9099 C   0  0  0  0  0  0
   25.4442  112.9400   42.0613 C   0  0  0  0  0  0
   23.2545  112.6816   44.0249 C   0  0  0  0  0  0
   24.4422  113.9341   41.9442 C   0  0  0  0  0  0
   26.0620  113.3444   39.7197 C   0  0  0  0  0  0
   26.4302  117.1967   44.4967 C   0  0  0  0  0  0
   28.5226  116.0620   45.0445 C   0  0  0  0  0  0
   26.8200  118.3146   45.4893 C   0  0  0  0  0  0
   28.8750  117.2061   46.0130 C   0  0  0  0  0  0
   27.1999  113.4387   44.5768 C   0  0  0  0  0  0
   26.8339  112.1096   43.8955 C   0  0  0  0  0  0
   26.5922  114.7560   44.0648 C   0  0  0  0  0  0
   25.5193  112.1282   43.2200 N   0  0  0  0  0  0
   27.0402  115.9090   44.9084 N   0  3  0  0  0  0
   28.2739  118.4548   45.5575 N   0  0  0  0  0  0
   26.8386  111.6568   38.3122 F   0  0  0  0  0  0
   28.1902  113.2761   38.8123 F   0  0  0  0  0  0
   26.5671  113.6108   37.4100 F   0  0  0  0  0  0
   23.3890  114.2935   43.3117 S   0  0  0  0  0  0
   26.9266  112.9703   38.5257 C   0  0  0  0  0  0
   22.7056  109.0364   45.2479 H   0  0  0  0  0  0
   20.8819  110.6972   45.4825 H   0  0  0  0  0  0
   24.8379  109.6651   44.1706 H   0  0  0  0  0  0
   21.2060  113.0277   44.6468 H   0  0  0  0  0  0
   23.4203  115.3223   40.6107 H   0  0  0  0  0  0
   24.8524  114.7934   38.6524 H   0  0  0  0  0  0
   27.0356  111.9199   40.9935 H   0  0  0  0  0  0
   25.3419  117.1019   44.4739 H   0  0  0  0  0  0
   26.7517  117.4580   43.4870 H   0  0  0  0  0  0
   28.9872  116.2274   44.0717 H   0  0  0  0  0  0
   28.9929  115.1752   45.4722 H   0  0  0  0  0  0
   26.3887  119.2680   45.1688 H   0  0  0  0  0  0
   26.4251  118.1103   46.4897 H   0  0  0  0  0  0
   28.5359  116.9771   47.0278 H   0  0  0  0  0  0
   29.9619  117.3257   46.0707 H   0  0  0  0  0  0
   27.0202  113.3466   45.6499 H   0  0  0  0  0  0
   28.2637  113.5369   44.3982 H   0  0  0  0  0  0
   27.5984  111.8262   43.1712 H   0  0  0  0  0  0
   26.8461  111.3346   44.6546 H   0  0  0  0  0  0
   26.9246  114.8974   43.0390 H   0  0  0  0  0  0
   25.4982  114.7087   44.0150 H   0  0  0  0  0  0
   28.6954  118.8211   44.7082 H   0  0  0  0  0  0
   26.7075  115.7492   45.8479 H   0  0  0  0  0  0
  1  2  2  0  0  0
  1  3  1  0  0  0
  1 28  1  0  0  0
  2  4  1  0  0  0
  2 29  1  0  0  0
  3  8  2  0  0  0
  3 30  1  0  0  0
  4 10  2  0  0  0
  4 31  1  0  0  0
  5  6  2  0  0  0
  5 11  1  0  0  0
  5 32  1  0  0  0
  6 12  1  0  0  0
  6 33  1  0  0  0
  7  9  1  0  0  0
  7 12  2  0  0  0
  7 34  1  0  0  0
  8 10  1  0  0  0
  8 20  1  0  0  0
  9 11  2  0  0  0
  9 20  1  0  0  0
 10 26  1  0  0  0
 11 26  1  0  0  0
 12 27  1  0  0  0
 13 15  1  0  0  0
 13 21  1  0  0  0
 13 35  1  0  0  0
 13 36  1  0  0  0
 14 16  1  0  0  0
 14 21  1  0  0  0
 14 37  1  0  0  0
 14 38  1  0  0  0
 15 22  1  0  0  0
 15 39  1  0  0  0
 15 40  1  0  0  0
 16 22  1  0  0  0
 16 41  1  0  0  0
 16 42  1  0  0  0
 17 18  1  0  0  0
 17 19  1  0  0  0
 17 43  1  0  0  0
 17 44  1  0  0  0
 18 20  1  0  0  0
 18 45  1  0  0  0
 18 46  1  0  0  0
 19 21  1  0  0  0
 19 47  1  0  0  0
 19 48  1  0  0  0
 21 50  1  0  0  0
 22 49  1  0  0  0
 23 27  1  0  0  0
 24 27  1  0  0  0
 25 27  1  0  0  0
M  CHG  1  21   1
M  END
> <s_m_entry_id>
546

> <s_m_entry_name>
TFP1bppS.1

> <s_m_Source_Path>
/home/emilio/Dropbox/SAMPL9-eglab/mCD/ligsdfs

> <s_m_Source_File>
TFP1bppS.sdf

> <i_m_Source_File_Index>
1

> <r_epik_Ionization_Penalty>
  0.1004

> <r_epik_State_Penalty>
  1.6660

> <i_epik_Tot_Q>
1

> <s_m_job_name>
ligprep_4

> <chiral flag>
1

> <version>
0

> <i_f3d_flags>
0

> <s_m_subgroup_title>
bCDq->ppS_copy1

> <s_m_subgroupid>
bCDq_copy1->ppS1_copy1_copy1

> <b_m_subgroup_collapsed>
0

$$$$
