@<TRIPOS>MOLECULE
LIG
26 28
SMALL
USER_CHARGES
@<TRIPOS>ATOM
      1 C1         19.9754  108.4834   37.3154 TA             0 LIG     -0.154775
      2 C2         25.6351  109.0876   40.0832 TB             0 LIG     -0.154775
      3 C3         19.3518  109.0074   38.4409 TD             0 LIG     -0.154775
      4 C4         25.0424  109.6086   41.2267 TE             0 LIG     -0.154775
      5 C5         21.1368  107.7251   37.4510 TF             0 LIG     -0.216337
      6 C6         24.9609  108.1363   39.3204 TH             0 LIG     -0.216337
      7 C7         19.8807  108.7522   39.7008 TI             0 LIG     -0.195515
      8 C8         23.7844  109.1611   41.6138 TJ             0 LIG     -0.195515
      9 C9         21.7140  107.4669   38.7118 TK             0 LIG     0.088793
     10 C10        23.6743  107.6747   39.6727 TN             0 LIG     0.088793
     11 C11        21.0373  107.9813   39.8409 TO             0 LIG     0.114550
     12 C12        23.1108  108.1986   40.8579 TP             0 LIG     0.114550
     13 C13        23.5431  105.8185   37.9058 TQ             0 LIG     -0.109988
     14 N1         22.9411  106.7744   38.8594 TV             0 LIG     -0.133727
     15 S1         21.5790  107.5987   41.4644 TW             0 LIG     -0.244806
     16 H1         19.5613  108.6670   36.3349 TX             0 LIG     0.151374
     17 H2         26.6163  109.4247   39.7826 TY             0 LIG     0.151374
     18 H3         18.4524  109.5967   38.3390 TZ             0 LIG     0.151374
     19 H4         25.5613  110.3478   41.8191 UB             0 LIG     0.151374
     20 H5         21.5683  107.3494   36.5393 UC             0 LIG     0.152365
     21 H6         25.4706  107.7794   38.4400 UD             0 LIG     0.152365
     22 H7         19.3748  109.1386   40.5740 UF             0 LIG     0.161016
     23 H8         23.3403  109.5514   42.5183 UG             0 LIG     0.161016
     24 H9         24.6027  106.0510   37.7898 UH             0 LIG     0.097461
     25 H10        23.1570  106.0126   36.9037 UJ             0 LIG     0.097461
     26 H11        23.3839  104.7841   38.2105 UK             0 LIG     0.097461
@<TRIPOS>BOND
        1  1  3  2
        2  1  5  1
        3  1  16  1
        4  2  4  2
        5  2  6  1
        6  2  17  1
        7  3  7  1
        8  3  18  1
        9  4  8  1
        10  4  19  1
        11  5  9  2
        12  5  20  1
        13  6  10  2
        14  6  21  1
        15  7  11  2
        16  7  22  1
        17  8  12  2
        18  8  23  1
        19  9  11  1
        20  9  14  1
        21  10  12  1
        22  10  14  1
        23  11  15  1
        24  12  15  1
        25  13  14  1
        26  13  24  1
        27  13  25  1
        28  13  26  1
@<TRIPOS>SUBSTRUCTURE
       1 LIG             1 RESIDUE    0 **** ROOT      0
