@<TRIPOS>MOLECULE
LIG
26 28
SMALL
USER_CHARGES
@<TRIPOS>ATOM
      1 C1           19.975    108.483     37.315 TA             1 LIG       -0.154775
      2 C2           25.635    109.088     40.083 TB             1 LIG       -0.154775
      3 C3           19.352    109.007     38.441 TD             1 LIG       -0.154775
      4 C4           25.043    109.609     41.227 TE             1 LIG       -0.154775
      5 C5           21.137    107.725     37.451 TF             1 LIG       -0.216337
      6 C6           24.961    108.136     39.320 TH             1 LIG       -0.216337
      7 C7           19.881    108.752     39.701 TI             1 LIG       -0.195515
      8 C8           23.784    109.161     41.614 TJ             1 LIG       -0.195515
      9 C9           21.714    107.467     38.712 TK             1 LIG        0.088793
     10 C10          23.674    107.675     39.673 TN             1 LIG        0.088793
     11 C11          21.037    107.981     39.841 TO             1 LIG        0.114550
     12 C12          23.111    108.198     40.858 TP             1 LIG        0.114550
     13 C13          23.443    105.840     37.917 TQ             1 LIG       -0.109988
     14 N1           22.910    106.830     38.873 TV             1 LIG       -0.133727
     15 S1           21.579    107.599     41.464 TW             1 LIG       -0.244806
     16 H1           19.561    108.667     36.335 TX             1 LIG        0.151374
     17 H2           26.616    109.425     39.783 TY             1 LIG        0.151374
     18 H3           18.452    109.597     38.339 TZ             1 LIG        0.151374
     19 H4           25.561    110.348     41.819 UB             1 LIG        0.151374
     20 H5           21.568    107.349     36.539 UC             1 LIG        0.152365
     21 H6           25.471    107.779     38.440 UD             1 LIG        0.152365
     22 H7           19.375    109.139     40.574 UF             1 LIG        0.161016
     23 H8           23.340    109.551     42.518 UG             1 LIG        0.161016
     24 H9           24.506    105.889     37.649 UH             1 LIG        0.097461
     25 H10          22.848    105.780     37.016 UJ             1 LIG        0.097461
     26 H11          23.211    104.822     38.237 UK             1 LIG        0.097461
@<TRIPOS>BOND
        1  1  3  2
        2  1  5  1
        3  1  16  1
        4  2  4  2
        5  2  6  1
        6  2  17  1
        7  3  7  1
        8  3  18  1
        9  4  8  1
        10  4  19  1
        11  5  9  2
        12  5  20  1
        13  6  10  2
        14  6  21  1
        15  7  11  2
        16  7  22  1
        17  8  12  2
        18  8  23  1
        19  9  11  1
        20  9  14  1
        21  10  12  1
        22  10  14  1
        23  11  15  1
        24  12  15  1
        25  13  14  1
        26  13  24  1
        27  13  25  1
        28  13  26  1
@<TRIPOS>SUBSTRUCTURE
       1 LIG             1 RESIDUE    0 **** ROOT      0
