PHM0assS
                    3D
 Schrodinger Suite 2019-4.
 26 28  0  0  1  0            999 V2000
   23.9096  110.3039   38.5002 C   0  0  0  0  0  0
   24.5736  104.4030   36.3097 C   0  0  0  0  0  0
   25.2847  110.4139   38.6651 C   0  0  0  0  0  0
   25.9517  104.4778   36.4689 C   0  0  0  0  0  0
   23.2833  109.0705   38.6699 C   0  0  0  0  0  0
   23.7327  105.0847   37.1871 C   0  0  0  0  0  0
   26.0258  109.2930   39.0211 C   0  0  0  0  0  0
   26.4834  105.2191   37.5180 C   0  0  0  0  0  0
   24.0076  107.9082   39.0073 C   0  0  0  0  0  0
   24.2388  105.8630   38.2504 C   0  0  0  0  0  0
   25.3991  108.0582   39.2048 C   0  0  0  0  0  0
   25.6428  105.8938   38.4066 C   0  0  0  0  0  0
   21.9737  106.3419   39.3570 C   0  0  0  0  0  0
   23.3996  106.6316   39.0957 N   0  0  0  0  0  0
   26.3758  106.7161   39.7706 S   0  0  0  0  0  0
   23.3267  111.1743   38.2371 H   0  0  0  0  0  0
   24.1545  103.8212   35.5020 H   0  0  0  0  0  0
   25.7732  111.3681   38.5330 H   0  0  0  0  0  0
   26.6065  103.9526   35.7892 H   0  0  0  0  0  0
   22.2165  109.0555   38.5275 H   0  0  0  0  0  0
   22.6742  104.9943   37.0035 H   0  0  0  0  0  0
   27.0908  109.3915   39.1758 H   0  0  0  0  0  0
   27.5552  105.2519   37.6514 H   0  0  0  0  0  0
   21.7525  106.5577   40.4034 H   0  0  0  0  0  0
   21.8065  105.2646   39.3071 H   0  0  0  0  0  0
   21.3163  106.8881   38.6805 H   0  0  0  0  0  0
  1  3  2  0  0  0
  1  5  1  0  0  0
  1 16  1  0  0  0
  2  4  2  0  0  0
  2  6  1  0  0  0
  2 17  1  0  0  0
  3  7  1  0  0  0
  3 18  1  0  0  0
  4  8  1  0  0  0
  4 19  1  0  0  0
  5  9  2  0  0  0
  5 20  1  0  0  0
  6 10  2  0  0  0
  6 21  1  0  0  0
  7 11  2  0  0  0
  7 22  1  0  0  0
  8 12  2  0  0  0
  8 23  1  0  0  0
  9 11  1  0  0  0
  9 14  1  0  0  0
 10 12  1  0  0  0
 10 14  1  0  0  0
 11 15  1  0  0  0
 12 15  1  0  0  0
 13 14  1  0  0  0
 13 24  1  0  0  0
 13 25  1  0  0  0
 13 26  1  0  0  0
M  END
> <s_m_entry_id>
190

> <s_m_Source_Path>
/nfs/egallicchio/Dropbox/sims/SAMPL9

> <s_m_Source_File>
PMZ.mol2

> <i_m_Source_File_Index>
1

> <r_epik_Ionization_Penalty>
  0.0034

> <r_epik_State_Penalty>
  0.0024

> <i_epik_Tot_Q>
1

> <i_f3d_flags>
0

> <s_m_job_name>
ligprep_4

$$$$
