PHM0apsS
                    3D
 Schrodinger Suite 2019-4.
 26 28  0  0  1  0            999 V2000
   29.3122  113.7596   36.2861 C   0  0  0  0  0  0
   25.6417  111.4649   40.9036 C   0  0  0  0  0  0
   30.2455  112.7547   36.5075 C   0  0  0  0  0  0
   26.5580  110.4513   41.1553 C   0  0  0  0  0  0
   28.5653  114.2644   37.3489 C   0  0  0  0  0  0
   26.0844  112.7118   40.4668 C   0  0  0  0  0  0
   30.4443  112.2736   37.7965 C   0  0  0  0  0  0
   27.9164  110.6953   40.9878 C   0  0  0  0  0  0
   28.7240  113.7826   38.6650 C   0  0  0  0  0  0
   27.4541  112.9879   40.2666 C   0  0  0  0  0  0
   29.7067  112.7868   38.8660 C   0  0  0  0  0  0
   28.3643  111.9481   40.5617 C   0  0  0  0  0  0
   27.1786  115.5021   39.8344 C   0  0  0  0  0  0
   27.9113  114.2217   39.7392 N   0  0  0  0  0  0
   30.0944  112.2202   40.4797 S   0  0  0  0  0  0
   29.1632  114.1470   35.2889 H   0  0  0  0  0  0
   24.5858  111.2840   41.0408 H   0  0  0  0  0  0
   30.8249  112.3604   35.6857 H   0  0  0  0  0  0
   26.2182  109.4828   41.4917 H   0  0  0  0  0  0
   27.8604  115.0412   37.1079 H   0  0  0  0  0  0
   25.3229  113.4518   40.2797 H   0  0  0  0  0  0
   31.1921  111.5122   37.9664 H   0  0  0  0  0  0
   28.6252  109.9106   41.2102 H   0  0  0  0  0  0
   26.9717  115.8696   38.8282 H   0  0  0  0  0  0
   27.8441  116.2737   40.2254 H   0  0  0  0  0  0
   26.2698  115.4083   40.4288 H   0  0  0  0  0  0
  1  3  2  0  0  0
  1  5  1  0  0  0
  1 16  1  0  0  0
  2  4  2  0  0  0
  2  6  1  0  0  0
  2 17  1  0  0  0
  3  7  1  0  0  0
  3 18  1  0  0  0
  4  8  1  0  0  0
  4 19  1  0  0  0
  5  9  2  0  0  0
  5 20  1  0  0  0
  6 10  2  0  0  0
  6 21  1  0  0  0
  7 11  2  0  0  0
  7 22  1  0  0  0
  8 12  2  0  0  0
  8 23  1  0  0  0
  9 11  1  0  0  0
  9 14  1  0  0  0
 10 12  1  0  0  0
 10 14  1  0  0  0
 11 15  1  0  0  0
 12 15  1  0  0  0
 13 14  1  0  0  0
 13 24  1  0  0  0
 13 25  1  0  0  0
 13 26  1  0  0  0
M  END
> <s_m_entry_id>
192

> <s_m_Source_Path>
/nfs/egallicchio/Dropbox/sims/SAMPL9

> <s_m_Source_File>
PMZ.mol2

> <i_m_Source_File_Index>
1

> <r_epik_Ionization_Penalty>
  0.0034

> <r_epik_State_Penalty>
  0.0024

> <i_epik_Tot_Q>
1

> <i_f3d_flags>
0

> <s_m_job_name>
ligprep_4

$$$$
