@<TRIPOS>MOLECULE
LIG
26 28
SMALL
USER_CHARGES
@<TRIPOS>ATOM
      1 C1         28.5013  114.7372   44.1577 TA             0 LIG     -0.154775
      2 C2         25.6119  111.8285   39.4057 TB             0 LIG     -0.154775
      3 C3         29.1969  113.6249   44.6147 TD             0 LIG     -0.154775
      4 C4         26.1656  110.5764   39.6423 TE             0 LIG     -0.154775
      5 C5         28.2211  114.8751   42.7995 TF             0 LIG     -0.216337
      6 C6         26.3399  112.9794   39.7005 TH             0 LIG     -0.216337
      7 C7         29.5906  112.6427   43.7133 TI             0 LIG     -0.195515
      8 C8         27.4391  110.4805   40.1916 TJ             0 LIG     -0.195515
      9 C9         28.6265  113.9098   41.8543 TK             0 LIG     0.088793
     10 C10        27.6430  112.9189   40.2397 TN             0 LIG     0.088793
     11 C11        29.2995  112.7715   42.3531 TO             0 LIG     0.114550
     12 C12        28.1669  111.6325   40.4995 TP             0 LIG     0.114550
     13 C13        28.4969  115.2883   39.6153 TQ             0 LIG     -0.109988
     14 N1         28.4280  114.0782   40.4617 TV             0 LIG     -0.133727
     15 S1         29.7186  111.4392   41.2925 TW             0 LIG     -0.244806
     16 H1         28.1809  115.4970   44.8553 TX             0 LIG     0.151374
     17 H2         24.6193  111.9092   38.9877 TY             0 LIG     0.151374
     18 H3         29.4168  113.5158   45.6665 TZ             0 LIG     0.151374
     19 H4         25.6050  109.6821   39.4128 UB             0 LIG     0.151374
     20 H5         27.6792  115.7599   42.5133 UC             0 LIG     0.152365
     21 H6         25.8581  113.9194   39.4844 UD             0 LIG     0.152365
     22 H7         30.1060  111.7662   44.0793 UF             0 LIG     0.161016
     23 H8         27.8534  109.5039   40.3971 UG             0 LIG     0.161016
     24 H9         29.2768  115.1536   38.8644 UH             0 LIG     0.097461
     25 H10        28.8884  116.1208   40.2024 UJ             0 LIG     0.097461
     26 H11        27.5335  115.5254   39.1641 UK             0 LIG     0.097461
@<TRIPOS>BOND
        1  1  3  2
        2  1  5  1
        3  1  16  1
        4  2  4  2
        5  2  6  1
        6  2  17  1
        7  3  7  1
        8  3  18  1
        9  4  8  1
        10  4  19  1
        11  5  9  2
        12  5  20  1
        13  6  10  2
        14  6  21  1
        15  7  11  2
        16  7  22  1
        17  8  12  2
        18  8  23  1
        19  9  11  1
        20  9  14  1
        21  10  12  1
        22  10  14  1
        23  11  15  1
        24  12  15  1
        25  13  14  1
        26  13  24  1
        27  13  25  1
        28  13  26  1
@<TRIPOS>SUBSTRUCTURE
       1 LIG             1 RESIDUE    0 **** ROOT      0
