PHM0aspS
                    3D
 Schrodinger Suite 2019-4.
 26 28  0  0  1  0            999 V2000
   19.9754  108.4834   37.3154 C   0  0  0  0  0  0
   25.6351  109.0876   40.0832 C   0  0  0  0  0  0
   19.3518  109.0074   38.4409 C   0  0  0  0  0  0
   25.0424  109.6086   41.2267 C   0  0  0  0  0  0
   21.1368  107.7251   37.4510 C   0  0  0  0  0  0
   24.9609  108.1363   39.3204 C   0  0  0  0  0  0
   19.8807  108.7522   39.7008 C   0  0  0  0  0  0
   23.7844  109.1611   41.6138 C   0  0  0  0  0  0
   21.7140  107.4669   38.7118 C   0  0  0  0  0  0
   23.6743  107.6747   39.6727 C   0  0  0  0  0  0
   21.0373  107.9813   39.8409 C   0  0  0  0  0  0
   23.1108  108.1986   40.8579 C   0  0  0  0  0  0
   23.5431  105.8185   37.9058 C   0  0  0  0  0  0
   22.9411  106.7744   38.8594 N   0  0  0  0  0  0
   21.5790  107.5987   41.4644 S   0  0  0  0  0  0
   19.5613  108.6670   36.3349 H   0  0  0  0  0  0
   26.6163  109.4247   39.7826 H   0  0  0  0  0  0
   18.4524  109.5967   38.3390 H   0  0  0  0  0  0
   25.5613  110.3478   41.8191 H   0  0  0  0  0  0
   21.5683  107.3494   36.5393 H   0  0  0  0  0  0
   25.4706  107.7794   38.4400 H   0  0  0  0  0  0
   19.3748  109.1386   40.5740 H   0  0  0  0  0  0
   23.3403  109.5514   42.5183 H   0  0  0  0  0  0
   24.6027  106.0510   37.7898 H   0  0  0  0  0  0
   23.1570  106.0126   36.9037 H   0  0  0  0  0  0
   23.3839  104.7841   38.2105 H   0  0  0  0  0  0
  1  3  2  0  0  0
  1  5  1  0  0  0
  1 16  1  0  0  0
  2  4  2  0  0  0
  2  6  1  0  0  0
  2 17  1  0  0  0
  3  7  1  0  0  0
  3 18  1  0  0  0
  4  8  1  0  0  0
  4 19  1  0  0  0
  5  9  2  0  0  0
  5 20  1  0  0  0
  6 10  2  0  0  0
  6 21  1  0  0  0
  7 11  2  0  0  0
  7 22  1  0  0  0
  8 12  2  0  0  0
  8 23  1  0  0  0
  9 11  1  0  0  0
  9 14  1  0  0  0
 10 12  1  0  0  0
 10 14  1  0  0  0
 11 15  1  0  0  0
 12 15  1  0  0  0
 13 14  1  0  0  0
 13 24  1  0  0  0
 13 25  1  0  0  0
 13 26  1  0  0  0
M  END
> <s_m_entry_id>
189

> <s_m_Source_Path>
/nfs/egallicchio/Dropbox/sims/SAMPL9

> <s_m_Source_File>
PMZ.mol2

> <i_m_Source_File_Index>
1

> <r_epik_Ionization_Penalty>
  0.0034

> <r_epik_State_Penalty>
  0.0024

> <i_epik_Tot_Q>
1

> <i_f3d_flags>
0

> <s_m_job_name>
ligprep_4

$$$$
