@<TRIPOS>MOLECULE
LIG
26 28
SMALL
USER_CHARGES
@<TRIPOS>ATOM
      1 C1         27.2154  111.3116   39.2005 TA             0 LIG     -0.154775
      2 C2         28.0013  114.7207   44.4943 TB             0 LIG     -0.154775
      3 C3         25.9037  111.7031   38.9636 TD             0 LIG     -0.154775
      4 C4         26.7233  115.2656   44.5074 TE             0 LIG     -0.154775
      5 C5         28.1009  112.1841   39.8305 TF             0 LIG     -0.216337
      6 C6         28.6140  114.4101   43.2821 TH             0 LIG     -0.216337
      7 C7         25.4762  112.9592   39.3781 TI             0 LIG     -0.195515
      8 C8         26.0549  115.4797   43.3074 TJ             0 LIG     -0.195515
      9 C9         27.7074  113.4745   40.2425 TK             0 LIG     0.088793
     10 C10        27.9728  114.6333   42.0445 TN             0 LIG     0.088793
     11 C11        26.3577  113.8310   40.0217 TO             0 LIG     0.114550
     12 C12        26.6616  115.1581   42.0908 TP             0 LIG     0.114550
     13 C13        30.0406  114.6516   40.4890 TQ             0 LIG     -0.109988
     14 N1         28.6173  114.4047   40.8028 TV             0 LIG     -0.133727
     15 S1         25.7196  115.3492   40.6245 TW             0 LIG     -0.244806
     16 H1         27.5496  110.3316   38.8930 TX             0 LIG     0.151374
     17 H2         28.5219  114.5436   45.4239 TY             0 LIG     0.151374
     18 H3         25.2155  111.0297   38.4743 TZ             0 LIG     0.151374
     19 H4         26.2463  115.5097   45.4452 UB             0 LIG     0.151374
     20 H5         29.1013  111.8178   39.9834 UC             0 LIG     0.152365
     21 H6         29.6093  113.9997   43.3397 UD             0 LIG     0.152365
     22 H7         24.4471  113.2465   39.2165 UF             0 LIG     0.161016
     23 H8         25.0511  115.8795   43.3260 UG             0 LIG     0.161016
     24 H9         30.6057  114.7096   41.4204 UH             0 LIG     0.097461
     25 H10        30.1554  115.6611   40.0905 UJ             0 LIG     0.097461
     26 H11        30.4454  113.8983   39.8131 UK             0 LIG     0.097461
@<TRIPOS>BOND
        1  1  3  2
        2  1  5  1
        3  1  16  1
        4  2  4  2
        5  2  6  1
        6  2  17  1
        7  3  7  1
        8  3  18  1
        9  4  8  1
        10  4  19  1
        11  5  9  2
        12  5  20  1
        13  6  10  2
        14  6  21  1
        15  7  11  2
        16  7  22  1
        17  8  12  2
        18  8  23  1
        19  9  11  1
        20  9  14  1
        21  10  12  1
        22  10  14  1
        23  11  15  1
        24  12  15  1
        25  13  14  1
        26  13  24  1
        27  13  25  1
        28  13  26  1
@<TRIPOS>SUBSTRUCTURE
       1 LIG             1 RESIDUE    0 **** ROOT      0
