PMZ1appR
                    3D
 Schrodinger Suite 2019-4.
 41 43  0  0  1  0            999 V2000
   27.7741  110.4389   39.1866 C   0  0  0  0  0  0
   28.9846  113.5391   44.5891 C   0  0  0  0  0  0
   26.5013  110.9620   38.9957 C   0  0  0  0  0  0
   27.7648  114.2013   44.6532 C   0  0  0  0  0  0
   28.7508  111.1975   39.8292 C   0  0  0  0  0  0
   29.5411  113.2219   43.3517 C   0  0  0  0  0  0
   26.2036  112.2348   39.4686 C   0  0  0  0  0  0
   27.0966  114.5264   43.4783 C   0  0  0  0  0  0
   28.4902  112.5012   40.3001 C   0  0  0  0  0  0
   28.9000  113.5551   42.1391 C   0  0  0  0  0  0
   27.1766  112.9924   40.1249 C   0  0  0  0  0  0
   27.6460  114.1990   42.2364 C   0  0  0  0  0  0
   32.3806  111.4075   36.6857 C   0  0  0  0  0  0
   34.7124  112.0900   37.4095 C   0  0  0  0  0  0
   31.4511  112.3811   39.5336 C   0  0  0  0  0  0
   30.9294  113.4417   40.5376 C   0  0  0  0  0  0
   32.7206  112.8499   38.8015 C   0  0  0  0  0  0
   29.4954  113.3177   40.8747 N   0  0  0  0  0  0
   33.2894  111.7396   37.8880 N   0  3  0  0  0  0
   26.6979  114.5381   40.8010 S   0  0  0  0  0  0
   28.0073  109.4452   38.8334 H   0  0  0  0  0  0
   29.5041  113.2758   45.4987 H   0  0  0  0  0  0
   25.7426  110.3772   38.4968 H   0  0  0  0  0  0
   27.3317  114.4508   45.6106 H   0  0  0  0  0  0
   29.7146  110.7324   39.9443 H   0  0  0  0  0  0
   30.4937  112.7173   43.3701 H   0  0  0  0  0  0
   25.2036  112.6244   39.3424 H   0  0  0  0  0  0
   26.1360  115.0182   43.5359 H   0  0  0  0  0  0
   32.2361  112.3247   36.1126 H   0  0  0  0  0  0
   31.4382  111.0192   37.0695 H   0  0  0  0  0  0
   32.8881  110.6437   36.0950 H   0  0  0  0  0  0
   34.6484  112.9982   36.8078 H   0  0  0  0  0  0
   35.0776  111.2447   36.8248 H   0  0  0  0  0  0
   35.3284  112.2376   38.2976 H   0  0  0  0  0  0
   31.7433  111.4867   40.0809 H   0  0  0  0  0  0
   30.6610  112.0410   38.8654 H   0  0  0  0  0  0
   31.5155  113.4079   41.4571 H   0  0  0  0  0  0
   31.1320  114.4513   40.1761 H   0  0  0  0  0  0
   32.5525  113.7207   38.1654 H   0  0  0  0  0  0
   33.5124  113.0733   39.5185 H   0  0  0  0  0  0
   33.3689  110.9030   38.4497 H   0  0  0  0  0  0
  1  3  2  0  0  0
  1  5  1  0  0  0
  1 21  1  0  0  0
  2  4  2  0  0  0
  2  6  1  0  0  0
  2 22  1  0  0  0
  3  7  1  0  0  0
  3 23  1  0  0  0
  4  8  1  0  0  0
  4 24  1  0  0  0
  5  9  2  0  0  0
  5 25  1  0  0  0
  6 10  2  0  0  0
  6 26  1  0  0  0
  7 11  2  0  0  0
  7 27  1  0  0  0
  8 12  2  0  0  0
  8 28  1  0  0  0
  9 11  1  0  0  0
  9 18  1  0  0  0
 10 12  1  0  0  0
 10 18  1  0  0  0
 11 20  1  0  0  0
 12 20  1  0  0  0
 13 19  1  0  0  0
 13 29  1  0  0  0
 13 30  1  0  0  0
 13 31  1  0  0  0
 14 19  1  0  0  0
 14 32  1  0  0  0
 14 33  1  0  0  0
 14 34  1  0  0  0
 15 16  1  0  0  0
 15 17  1  0  0  0
 15 35  1  0  0  0
 15 36  1  0  0  0
 16 18  1  0  0  0
 16 37  1  0  0  0
 16 38  1  0  0  0
 17 19  1  0  0  0
 17 39  1  0  0  0
 17 40  1  0  0  0
 19 41  1  0  0  0
M  CHG  1  19   1
M  END
> <s_m_entry_id>
124

> <s_m_entry_name>
PMZ.1

> <s_m_Source_Path>
/nfs/egallicchio/Dropbox/sims/SAMPL9

> <s_m_Source_File>
PMZ.mol2

> <i_m_Source_File_Index>
1

> <s_m_source_file>
ligprep_4.maegz

> <i_m_source_file_index>
3

> <i_lp_mmshare_version>
47013

> <s_epik_input>
W2NIXTFbY0hdW2NIXVtjSF1jKGMxMilTYzNjKFtjSF1bY0hdW2NIXVtjSF0zKU4yW0NIMl1bQ0gyXVtDSDJdTihbQ0gzXSlbQ0gzXQ==

> <s_epik_cmdline>
J2VwaWtfcHl0aG9uJywgJy1waHQnLCAnNC4wJywgJy1waCcsICc3LjQnLCAnLXRuJywgJzgnLCAnLW1hJywgJzIwMCcsICctaW1hZScsICc8aW5maWxlLm1hZT4nLCAnLW9tYWUnLCAnPG91dGZpbGUubWFlPic=

> <r_epik_Ionization_Penalty>
  0.0034

> <r_epik_Ionization_Penalty_Charging>
  0.0034

> <r_epik_Ionization_Penalty_Neutral>
  0.0000

> <r_epik_State_Penalty>
  0.0024

> <r_epik_Charging_Adjusted_Penalty>
0.0058317545360184

> <i_epik_Tot_Q>
1

> <i_epik_Tot_abs_Q>
1

> <i_f3d_flags>
0

> <s_lp_Force_Field>
OPLS3e

> <r_lp_Energy>
55.741628

> <b_lp_Chiralities_Consistent>
1

> <s_lp_Variant>
PMZ-1

> <s_m_job_name>
ligprep_4

> <s_m_subgroup_title>
PMZ1a

> <s_m_subgroupid>
PMZ1a_copy1

> <b_m_subgroup_collapsed>
0

$$$$
