@<TRIPOS>MOLECULE
LIG
41 43
SMALL
USER_CHARGES
@<TRIPOS>ATOM
      1 C1         19.9754  108.4834   37.3154 PA             0 LIG     -0.151978
      2 C2         25.6351  109.0876   40.0832 PB             0 LIG     -0.151978
      3 C3         19.3518  109.0074   38.4409 PD             0 LIG     -0.151978
      4 C4         25.0424  109.6086   41.2267 PE             0 LIG     -0.151978
      5 C5         21.1368  107.7251   37.4510 PF             0 LIG     -0.221382
      6 C6         24.9609  108.1363   39.3204 PH             0 LIG     -0.221382
      7 C7         19.8807  108.7522   39.7008 PI             0 LIG     -0.192007
      8 C8         23.7844  109.1611   41.6138 PJ             0 LIG     -0.192007
      9 C9         21.7140  107.4669   38.7118 PK             0 LIG     0.086899
     10 C10        23.6743  107.6747   39.6727 PN             0 LIG     0.086899
     11 C11        21.0373  107.9813   39.8409 PO             0 LIG     0.115779
     12 C12        23.1108  108.1986   40.8579 PP             0 LIG     0.115779
     13 C13        22.0308  101.4847   38.0156 PQ             0 LIG     -0.319173
     14 C14        23.8500  100.9898   36.3208 PV             0 LIG     -0.319173
     15 C15        23.3634  104.3260   38.2869 PW             0 LIG     -0.018118
     16 C16        23.5431  105.8185   37.9058 PX             0 LIG     0.036275
     17 C17        23.4856  103.3967   37.0667 PY             0 LIG     0.012268
     18 N1         22.9411  106.7744   38.8594 PZ             0 LIG     -0.191498
     19 N2         23.4147  101.9084   37.4798 QB             0 LIG     0.153200
     20 S1         21.5790  107.5987   41.4644 QC             0 LIG     -0.201542
     21 H1         19.5613  108.6670   36.3349 QD             0 LIG     0.160898
     22 H2         26.6163  109.4247   39.7826 QF             0 LIG     0.160898
     23 H3         18.4524  109.5967   38.3390 QG             0 LIG     0.160898
     24 H4         25.5613  110.3478   41.8191 QH             0 LIG     0.160898
     25 H5         21.5683  107.3494   36.5393 QJ             0 LIG     0.134456
     26 H6         25.4706  107.7794   38.4400 QK             0 LIG     0.134456
     27 H7         19.3748  109.1386   40.5740 QL             0 LIG     0.174337
     28 H8         23.3403  109.5514   42.5183 QM             0 LIG     0.174337
     29 H9         21.2937  101.6918   37.2382 QN             0 LIG     0.158404
     30 H10        21.8298  102.0523   38.9232 QO             0 LIG     0.158404
     31 H11        22.0820  100.4192   38.2434 QP             0 LIG     0.158404
     32 H12        23.1433  101.1286   35.5009 QQ             0 LIG     0.158404
     33 H13        23.8373   99.9649   36.6941 QS             0 LIG     0.158404
     34 H14        24.8613  101.2820   36.0348 QT             0 LIG     0.158404
     35 H15        24.1668  104.0315   38.9596 QU             0 LIG     0.041463
     36 H16        22.4555  104.1686   38.8676 QV             0 LIG     0.041463
     37 H17        24.6027  106.0510   37.7898 QW             0 LIG     0.085391
     38 H18        23.1570  106.0126   36.9037 QX             0 LIG     0.085391
     39 H19        22.6977  103.5526   36.3277 QY             0 LIG     0.073022
     40 H20        24.4590  103.5219   36.5893 QZ             0 LIG     0.073022
     41 H21        24.0840  101.7737   38.2253 RB             0 LIG     0.265740
@<TRIPOS>BOND
        1  1  3  2
        2  1  5  1
        3  1  21  1
        4  2  4  2
        5  2  6  1
        6  2  22  1
        7  3  7  1
        8  3  23  1
        9  4  8  1
        10  4  24  1
        11  5  9  2
        12  5  25  1
        13  6  10  2
        14  6  26  1
        15  7  11  2
        16  7  27  1
        17  8  12  2
        18  8  28  1
        19  9  11  1
        20  9  18  1
        21  10  12  1
        22  10  18  1
        23  11  20  1
        24  12  20  1
        25  13  19  1
        26  13  29  1
        27  13  30  1
        28  13  31  1
        29  14  19  1
        30  14  32  1
        31  14  33  1
        32  14  34  1
        33  15  16  1
        34  15  17  1
        35  15  35  1
        36  15  36  1
        37  16  18  1
        38  16  37  1
        39  16  38  1
        40  17  19  1
        41  17  39  1
        42  17  40  1
        43  19  41  1
@<TRIPOS>SUBSTRUCTURE
       1 LIG             1 RESIDUE    0 **** ROOT      0
