PMZ1apsS
                    3D
 Schrodinger Suite 2019-4.
 41 43  0  0  1  0            999 V2000
   29.3122  113.7596   36.2861 C   0  0  0  0  0  0
   25.6417  111.4649   40.9036 C   0  0  0  0  0  0
   30.2455  112.7547   36.5075 C   0  0  0  0  0  0
   26.5580  110.4513   41.1553 C   0  0  0  0  0  0
   28.5653  114.2644   37.3489 C   0  0  0  0  0  0
   26.0844  112.7118   40.4668 C   0  0  0  0  0  0
   30.4443  112.2736   37.7965 C   0  0  0  0  0  0
   27.9164  110.6953   40.9878 C   0  0  0  0  0  0
   28.7240  113.7826   38.6650 C   0  0  0  0  0  0
   27.4541  112.9879   40.2666 C   0  0  0  0  0  0
   29.7067  112.7868   38.8660 C   0  0  0  0  0  0
   28.3643  111.9481   40.5617 C   0  0  0  0  0  0
   24.1204  115.9422   43.2306 C   0  0  0  0  0  0
   23.5200  118.1645   42.1687 C   0  0  0  0  0  0
   25.8664  115.4359   40.6581 C   0  0  0  0  0  0
   27.1786  115.5021   39.8344 C   0  0  0  0  0  0
   25.4470  116.8160   41.1937 C   0  0  0  0  0  0
   27.9113  114.2217   39.7392 N   0  0  0  0  0  0
   24.0819  116.7512   41.9170 N   0  3  0  0  0  0
   30.0944  112.2202   40.4797 S   0  0  0  0  0  0
   29.1632  114.1470   35.2889 H   0  0  0  0  0  0
   24.5858  111.2840   41.0408 H   0  0  0  0  0  0
   30.8249  112.3604   35.6857 H   0  0  0  0  0  0
   26.2182  109.4828   41.4917 H   0  0  0  0  0  0
   27.8604  115.0412   37.1079 H   0  0  0  0  0  0
   25.3229  113.4518   40.2797 H   0  0  0  0  0  0
   31.1921  111.5122   37.9664 H   0  0  0  0  0  0
   28.6252  109.9106   41.2102 H   0  0  0  0  0  0
   24.8668  116.3987   43.8825 H   0  0  0  0  0  0
   24.3741  114.9113   42.9872 H   0  0  0  0  0  0
   23.1236  115.9889   43.6713 H   0  0  0  0  0  0
   24.2107  118.6850   42.8344 H   0  0  0  0  0  0
   22.5348  118.0482   42.6222 H   0  0  0  0  0  0
   23.4414  118.6618   41.2011 H   0  0  0  0  0  0
   25.0541  115.1160   40.0079 H   0  0  0  0  0  0
   25.9152  114.6650   41.4260 H   0  0  0  0  0  0
   26.9717  115.8696   38.8282 H   0  0  0  0  0  0
   27.8441  116.2737   40.2254 H   0  0  0  0  0  0
   26.1585  117.2335   41.9083 H   0  0  0  0  0  0
   25.3084  117.5177   40.3694 H   0  0  0  0  0  0
   23.4355  116.2879   41.2929 H   0  0  0  0  0  0
  1  3  2  0  0  0
  1  5  1  0  0  0
  1 21  1  0  0  0
  2  4  2  0  0  0
  2  6  1  0  0  0
  2 22  1  0  0  0
  3  7  1  0  0  0
  3 23  1  0  0  0
  4  8  1  0  0  0
  4 24  1  0  0  0
  5  9  2  0  0  0
  5 25  1  0  0  0
  6 10  2  0  0  0
  6 26  1  0  0  0
  7 11  2  0  0  0
  7 27  1  0  0  0
  8 12  2  0  0  0
  8 28  1  0  0  0
  9 11  1  0  0  0
  9 18  1  0  0  0
 10 12  1  0  0  0
 10 18  1  0  0  0
 11 20  1  0  0  0
 12 20  1  0  0  0
 13 19  1  0  0  0
 13 29  1  0  0  0
 13 30  1  0  0  0
 13 31  1  0  0  0
 14 19  1  0  0  0
 14 32  1  0  0  0
 14 33  1  0  0  0
 14 34  1  0  0  0
 15 16  1  0  0  0
 15 17  1  0  0  0
 15 35  1  0  0  0
 15 36  1  0  0  0
 16 18  1  0  0  0
 16 37  1  0  0  0
 16 38  1  0  0  0
 17 19  1  0  0  0
 17 39  1  0  0  0
 17 40  1  0  0  0
 19 41  1  0  0  0
M  CHG  1  19   1
M  END
> <s_m_entry_id>
121

> <s_m_entry_name>
PMZ.1

> <s_m_Source_Path>
/nfs/egallicchio/Dropbox/sims/SAMPL9

> <s_m_Source_File>
PMZ.mol2

> <i_m_Source_File_Index>
1

> <s_m_source_file>
ligprep_4.maegz

> <i_m_source_file_index>
3

> <i_lp_mmshare_version>
47013

> <s_epik_input>
W2NIXTFbY0hdW2NIXVtjSF1jKGMxMilTYzNjKFtjSF1bY0hdW2NIXVtjSF0zKU4yW0NIMl1bQ0gyXVtDSDJdTihbQ0gzXSlbQ0gzXQ==

> <s_epik_cmdline>
J2VwaWtfcHl0aG9uJywgJy1waHQnLCAnNC4wJywgJy1waCcsICc3LjQnLCAnLXRuJywgJzgnLCAnLW1hJywgJzIwMCcsICctaW1hZScsICc8aW5maWxlLm1hZT4nLCAnLW9tYWUnLCAnPG91dGZpbGUubWFlPic=

> <r_epik_Ionization_Penalty>
  0.0034

> <r_epik_Ionization_Penalty_Charging>
  0.0034

> <r_epik_Ionization_Penalty_Neutral>
  0.0000

> <r_epik_State_Penalty>
  0.0024

> <r_epik_Charging_Adjusted_Penalty>
0.0058317545360184

> <i_epik_Tot_Q>
1

> <i_epik_Tot_abs_Q>
1

> <i_f3d_flags>
0

> <s_lp_Force_Field>
OPLS3e

> <r_lp_Energy>
55.741628

> <b_lp_Chiralities_Consistent>
1

> <s_lp_Variant>
PMZ-1

> <s_m_job_name>
ligprep_4

> <s_m_subgroup_title>
PMZ1a

> <s_m_subgroupid>
PMZ1a_copy1

> <b_m_subgroup_collapsed>
0

$$$$
