PMZ1assR
                    3D
 Schrodinger Suite 2019-4.
 41 43  0  0  1  0            999 V2000
   23.9684  111.2971   38.5255 C   0  0  0  0  0  0
   22.5992  105.3859   40.7941 C   0  0  0  0  0  0
   25.3416  111.1068   38.4366 C   0  0  0  0  0  0
   23.9122  104.9321   40.8140 C   0  0  0  0  0  0
   23.1036  110.2129   38.3884 C   0  0  0  0  0  0
   22.2093  106.3508   39.8676 C   0  0  0  0  0  0
   25.8461  109.8276   38.2328 C   0  0  0  0  0  0
   24.8357  105.4600   39.9189 C   0  0  0  0  0  0
   23.5800  108.9057   38.1569 C   0  0  0  0  0  0
   23.1155  106.8934   38.9311 C   0  0  0  0  0  0
   24.9824  108.7368   38.1083 C   0  0  0  0  0  0
   24.4509  106.4363   38.9967 C   0  0  0  0  0  0
   17.7476  109.3498   39.5069 C   0  0  0  0  0  0
   16.3911  108.5806   37.5081 C   0  0  0  0  0  0
   20.1736  107.8661   38.1521 C   0  0  0  0  0  0
   21.4129  107.7911   37.2228 C   0  0  0  0  0  0
   18.9287  108.3939   37.4179 C   0  0  0  0  0  0
   22.7127  107.8093   37.9269 N   0  0  0  0  0  0
   17.6783  108.3578   38.3267 N   0  3  0  0  0  0
   25.6905  107.1380   37.9744 S   0  0  0  0  0  0
   23.5712  112.2867   38.6974 H   0  0  0  0  0  0
   21.8795  104.9861   41.4932 H   0  0  0  0  0  0
   26.0144  111.9452   38.5410 H   0  0  0  0  0  0
   24.2173  104.1826   41.5293 H   0  0  0  0  0  0
   22.0524  110.4302   38.4680 H   0  0  0  0  0  0
   21.1749  106.6531   39.8974 H   0  0  0  0  0  0
   26.9162  109.6821   38.1933 H   0  0  0  0  0  0
   25.8612  105.1214   39.9570 H   0  0  0  0  0  0
   17.8804  110.3511   39.0944 H   0  0  0  0  0  0
   18.5831  109.0620   40.1437 H   0  0  0  0  0  0
   16.8100  109.2663   40.0580 H   0  0  0  0  0  0
   16.4413  109.5797   37.0720 H   0  0  0  0  0  0
   15.5476  108.4821   38.1927 H   0  0  0  0  0  0
   16.3548  107.8071   36.7398 H   0  0  0  0  0  0
   19.9144  106.8613   38.4809 H   0  0  0  0  0  0
   20.3975  108.4011   39.0741 H   0  0  0  0  0  0
   21.3593  106.8988   36.5973 H   0  0  0  0  0  0
   21.3904  108.5906   36.4803 H   0  0  0  0  0  0
   19.0363  109.4252   37.0772 H   0  0  0  0  0  0
   18.6901  107.7547   36.5661 H   0  0  0  0  0  0
   17.6187  107.4264   38.7150 H   0  0  0  0  0  0
  1  3  2  0  0  0
  1  5  1  0  0  0
  1 21  1  0  0  0
  2  4  2  0  0  0
  2  6  1  0  0  0
  2 22  1  0  0  0
  3  7  1  0  0  0
  3 23  1  0  0  0
  4  8  1  0  0  0
  4 24  1  0  0  0
  5  9  2  0  0  0
  5 25  1  0  0  0
  6 10  2  0  0  0
  6 26  1  0  0  0
  7 11  2  0  0  0
  7 27  1  0  0  0
  8 12  2  0  0  0
  8 28  1  0  0  0
  9 11  1  0  0  0
  9 18  1  0  0  0
 10 12  1  0  0  0
 10 18  1  0  0  0
 11 20  1  0  0  0
 12 20  1  0  0  0
 13 19  1  0  0  0
 13 29  1  0  0  0
 13 30  1  0  0  0
 13 31  1  0  0  0
 14 19  1  0  0  0
 14 32  1  0  0  0
 14 33  1  0  0  0
 14 34  1  0  0  0
 15 16  1  0  0  0
 15 17  1  0  0  0
 15 35  1  0  0  0
 15 36  1  0  0  0
 16 18  1  0  0  0
 16 37  1  0  0  0
 16 38  1  0  0  0
 17 19  1  0  0  0
 17 39  1  0  0  0
 17 40  1  0  0  0
 19 41  1  0  0  0
M  CHG  1  19   1
M  END
> <s_m_entry_id>
185

> <s_m_entry_name>
PMZ.1

> <s_m_Source_Path>
/nfs/egallicchio/Dropbox/sims/SAMPL9

> <s_m_Source_File>
PMZ.mol2

> <i_m_Source_File_Index>
1

> <s_m_source_file>
ligprep_4.maegz

> <i_m_source_file_index>
3

> <i_lp_mmshare_version>
47013

> <s_epik_input>
W2NIXTFbY0hdW2NIXVtjSF1jKGMxMilTYzNjKFtjSF1bY0hdW2NIXVtjSF0zKU4yW0NIMl1bQ0gyXVtDSDJdTihbQ0gzXSlbQ0gzXQ==

> <s_epik_cmdline>
J2VwaWtfcHl0aG9uJywgJy1waHQnLCAnNC4wJywgJy1waCcsICc3LjQnLCAnLXRuJywgJzgnLCAnLW1hJywgJzIwMCcsICctaW1hZScsICc8aW5maWxlLm1hZT4nLCAnLW9tYWUnLCAnPG91dGZpbGUubWFlPic=

> <r_epik_Ionization_Penalty>
  0.0034

> <r_epik_Ionization_Penalty_Charging>
  0.0034

> <r_epik_Ionization_Penalty_Neutral>
  0.0000

> <r_epik_State_Penalty>
  0.0024

> <r_epik_Charging_Adjusted_Penalty>
0.0058317545360184

> <i_epik_Tot_Q>
1

> <i_epik_Tot_abs_Q>
1

> <i_f3d_flags>
0

> <s_lp_Force_Field>
OPLS3e

> <r_lp_Energy>
55.741628

> <b_lp_Chiralities_Consistent>
1

> <s_lp_Variant>
PMZ-1

> <s_m_job_name>
ligprep_4

$$$$
