@<TRIPOS>MOLECULE
LIG
41 43
SMALL
USER_CHARGES
@<TRIPOS>ATOM
      1 C1         23.9096  110.3039   38.5002 PA             0 LIG     -0.151978
      2 C2         24.5736  104.4030   36.3097 PB             0 LIG     -0.151978
      3 C3         25.2847  110.4139   38.6651 PD             0 LIG     -0.151978
      4 C4         25.9517  104.4778   36.4689 PE             0 LIG     -0.151978
      5 C5         23.2833  109.0705   38.6699 PF             0 LIG     -0.221382
      6 C6         23.7327  105.0847   37.1871 PH             0 LIG     -0.221382
      7 C7         26.0258  109.2930   39.0211 PI             0 LIG     -0.192007
      8 C8         26.4834  105.2191   37.5180 PJ             0 LIG     -0.192007
      9 C9         24.0076  107.9082   39.0073 PK             0 LIG     0.086899
     10 C10        24.2388  105.8630   38.2504 PN             0 LIG     0.086899
     11 C11        25.3991  108.0582   39.2048 PO             0 LIG     0.115779
     12 C12        25.6428  105.8938   38.4066 PP             0 LIG     0.115779
     13 C13        18.9730  107.3036   36.0175 PQ             0 LIG     -0.319173
     14 C14        17.1747  106.6701   37.6883 PV             0 LIG     -0.319173
     15 C15        20.9815  107.0977   38.4355 PW             0 LIG     -0.018118
     16 C16        21.9737  106.3419   39.3570 PX             0 LIG     0.036275
     17 C17        19.6183  106.3897   38.3459 PY             0 LIG     0.012268
     18 N1         23.3996  106.6316   39.0957 PZ             0 LIG     -0.191498
     19 N2         18.6073  107.2123   37.5141 QB             0 LIG     0.153200
     20 S1         26.3758  106.7161   39.7706 QC             0 LIG     -0.201542
     21 H1         23.3267  111.1743   38.2371 QD             0 LIG     0.160898
     22 H2         24.1545  103.8212   35.5020 QF             0 LIG     0.160898
     23 H3         25.7732  111.3681   38.5330 QG             0 LIG     0.160898
     24 H4         26.6065  103.9526   35.7892 QH             0 LIG     0.160898
     25 H5         22.2165  109.0555   38.5275 QJ             0 LIG     0.134456
     26 H6         22.6742  104.9943   37.0035 QK             0 LIG     0.134456
     27 H7         27.0908  109.3915   39.1758 QL             0 LIG     0.174337
     28 H8         27.5552  105.2519   37.6514 QM             0 LIG     0.174337
     29 H9         19.0381  106.2870   35.6268 QN             0 LIG     0.158404
     30 H10        19.9226  107.8301   35.9317 QO             0 LIG     0.158404
     31 H11        18.1835  107.8713   35.5233 QP             0 LIG     0.158404
     32 H12        17.1539  105.6503   37.3003 QQ             0 LIG     0.158404
     33 H13        16.5067  107.3270   37.1296 QS             0 LIG     0.158404
     34 H14        16.9413  106.7007   38.7534 QT             0 LIG     0.158404
     35 H15        20.7742  108.0769   38.8633 QU             0 LIG     0.041463
     36 H16        21.4253  107.3169   37.4653 QV             0 LIG     0.041463
     37 H17        21.7525  106.5577   40.4034 QW             0 LIG     0.085391
     38 H18        21.8065  105.2646   39.3071 QX             0 LIG     0.085391
     39 H19        19.6761  105.4044   37.8799 QY             0 LIG     0.073022
     40 H20        19.1730  106.2951   39.3377 QZ             0 LIG     0.073022
     41 H21        18.6100  108.1522   37.8860 RB             0 LIG     0.265740
@<TRIPOS>BOND
        1  1  3  2
        2  1  5  1
        3  1  21  1
        4  2  4  2
        5  2  6  1
        6  2  22  1
        7  3  7  1
        8  3  23  1
        9  4  8  1
        10  4  24  1
        11  5  9  2
        12  5  25  1
        13  6  10  2
        14  6  26  1
        15  7  11  2
        16  7  27  1
        17  8  12  2
        18  8  28  1
        19  9  11  1
        20  9  18  1
        21  10  12  1
        22  10  18  1
        23  11  20  1
        24  12  20  1
        25  13  19  1
        26  13  29  1
        27  13  30  1
        28  13  31  1
        29  14  19  1
        30  14  32  1
        31  14  33  1
        32  14  34  1
        33  15  16  1
        34  15  17  1
        35  15  35  1
        36  15  36  1
        37  16  18  1
        38  16  37  1
        39  16  38  1
        40  17  19  1
        41  17  39  1
        42  17  40  1
        43  19  41  1
@<TRIPOS>SUBSTRUCTURE
       1 LIG             1 RESIDUE    0 **** ROOT      0
