PMZ1aspR
                    3D
 Schrodinger Suite 2019-4.
 41 43  0  0  1  0            999 V2000
   22.2560  103.3131   40.1440 C   0  0  0  0  0  0
   25.6351  109.0876   40.0832 C   0  0  0  0  0  0
   21.5151  103.5924   41.2854 C   0  0  0  0  0  0
   25.0424  109.6086   41.2267 C   0  0  0  0  0  0
   22.7510  104.3547   39.3615 C   0  0  0  0  0  0
   24.9609  108.1363   39.3204 C   0  0  0  0  0  0
   21.2905  104.9142   41.6524 C   0  0  0  0  0  0
   23.7844  109.1611   41.6138 C   0  0  0  0  0  0
   22.5216  105.7069   39.6910 C   0  0  0  0  0  0
   23.6743  107.6747   39.6727 C   0  0  0  0  0  0
   21.7966  105.9605   40.8774 C   0  0  0  0  0  0
   23.1108  108.1986   40.8579 C   0  0  0  0  0  0
   21.6604  102.9313   35.2383 C   0  0  0  0  0  0
   22.5174  104.0226   33.1166 C   0  0  0  0  0  0
   23.0205  105.3315   36.7589 C   0  0  0  0  0  0
   23.0352  106.7505   37.3843 C   0  0  0  0  0  0
   22.5667  105.3498   35.2888 C   0  0  0  0  0  0
   22.9411  106.7744   38.8594 N   0  0  0  0  0  0
   22.6638  103.9453   34.6493 N   0  3  0  0  0  0
   21.5790  107.5987   41.4644 S   0  0  0  0  0  0
   22.4454  102.2879   39.8614 H   0  0  0  0  0  0
   26.6163  109.4247   39.7826 H   0  0  0  0  0  0
   21.1289  102.7873   41.8932 H   0  0  0  0  0  0
   25.5613  110.3478   41.8191 H   0  0  0  0  0  0
   23.3165  104.0686   38.4916 H   0  0  0  0  0  0
   25.4706  107.7794   38.4400 H   0  0  0  0  0  0
   20.7379  105.1245   42.5570 H   0  0  0  0  0  0
   23.3403  109.5514   42.5183 H   0  0  0  0  0  0
   20.6565  103.3358   35.1001 H   0  0  0  0  0  0
   21.8975  102.7922   36.2922 H   0  0  0  0  0  0
   21.7905  101.9929   34.6977 H   0  0  0  0  0  0
   21.5204  104.4071   32.8951 H   0  0  0  0  0  0
   22.6563  103.0143   32.7241 H   0  0  0  0  0  0
   23.2976  104.6895   32.7473 H   0  0  0  0  0  0
   24.0353  104.9379   36.7462 H   0  0  0  0  0  0
   22.4671  104.6274   37.3789 H   0  0  0  0  0  0
   23.9339  107.2869   37.0761 H   0  0  0  0  0  0
   22.2439  107.3703   36.9593 H   0  0  0  0  0  0
   21.5338  105.6787   35.1624 H   0  0  0  0  0  0
   23.2244  105.9875   34.6957 H   0  0  0  0  0  0
   23.5940  103.5965   34.8357 H   0  0  0  0  0  0
  1  3  2  0  0  0
  1  5  1  0  0  0
  1 21  1  0  0  0
  2  4  2  0  0  0
  2  6  1  0  0  0
  2 22  1  0  0  0
  3  7  1  0  0  0
  3 23  1  0  0  0
  4  8  1  0  0  0
  4 24  1  0  0  0
  5  9  2  0  0  0
  5 25  1  0  0  0
  6 10  2  0  0  0
  6 26  1  0  0  0
  7 11  2  0  0  0
  7 27  1  0  0  0
  8 12  2  0  0  0
  8 28  1  0  0  0
  9 11  1  0  0  0
  9 18  1  0  0  0
 10 12  1  0  0  0
 10 18  1  0  0  0
 11 20  1  0  0  0
 12 20  1  0  0  0
 13 19  1  0  0  0
 13 29  1  0  0  0
 13 30  1  0  0  0
 13 31  1  0  0  0
 14 19  1  0  0  0
 14 32  1  0  0  0
 14 33  1  0  0  0
 14 34  1  0  0  0
 15 16  1  0  0  0
 15 17  1  0  0  0
 15 35  1  0  0  0
 15 36  1  0  0  0
 16 18  1  0  0  0
 16 37  1  0  0  0
 16 38  1  0  0  0
 17 19  1  0  0  0
 17 39  1  0  0  0
 17 40  1  0  0  0
 19 41  1  0  0  0
M  CHG  1  19   1
M  END
> <s_m_entry_id>
173

> <s_m_entry_name>
PMZ.1

> <s_m_Source_Path>
/nfs/egallicchio/Dropbox/sims/SAMPL9

> <s_m_Source_File>
PMZ.mol2

> <i_m_Source_File_Index>
1

> <s_m_source_file>
ligprep_4.maegz

> <i_m_source_file_index>
3

> <i_lp_mmshare_version>
47013

> <s_epik_input>
W2NIXTFbY0hdW2NIXVtjSF1jKGMxMilTYzNjKFtjSF1bY0hdW2NIXVtjSF0zKU4yW0NIMl1bQ0gyXVtDSDJdTihbQ0gzXSlbQ0gzXQ==

> <s_epik_cmdline>
J2VwaWtfcHl0aG9uJywgJy1waHQnLCAnNC4wJywgJy1waCcsICc3LjQnLCAnLXRuJywgJzgnLCAnLW1hJywgJzIwMCcsICctaW1hZScsICc8aW5maWxlLm1hZT4nLCAnLW9tYWUnLCAnPG91dGZpbGUubWFlPic=

> <r_epik_Ionization_Penalty>
  0.0034

> <r_epik_Ionization_Penalty_Charging>
  0.0034

> <r_epik_Ionization_Penalty_Neutral>
  0.0000

> <r_epik_State_Penalty>
  0.0024

> <r_epik_Charging_Adjusted_Penalty>
0.0058317545360184

> <i_epik_Tot_Q>
1

> <i_epik_Tot_abs_Q>
1

> <i_f3d_flags>
0

> <s_lp_Force_Field>
OPLS3e

> <r_lp_Energy>
55.741628

> <b_lp_Chiralities_Consistent>
1

> <s_lp_Variant>
PMZ-1

> <s_m_job_name>
ligprep_4

$$$$
