@<TRIPOS>MOLECULE
LIG
41 43
SMALL
USER_CHARGES
@<TRIPOS>ATOM
      1 C1         28.2831  114.4143   43.7938 PA             0 LIG     -0.151978
      2 C2         25.3937  111.5055   39.0419 PB             0 LIG     -0.151978
      3 C3         28.9787  113.3019   44.2509 PD             0 LIG     -0.151978
      4 C4         25.9474  110.2534   39.2784 PE             0 LIG     -0.151978
      5 C5         28.0029  114.5521   42.4356 PF             0 LIG     -0.221382
      6 C6         26.1216  112.6564   39.3366 PH             0 LIG     -0.221382
      7 C7         29.3723  112.3197   43.3495 PI             0 LIG     -0.192007
      8 C8         27.2209  110.1576   39.8277 PJ             0 LIG     -0.192007
      9 C9         28.4083  113.5869   41.4905 PK             0 LIG     0.086899
     10 C10        27.4248  112.5959   39.8758 PN             0 LIG     0.086899
     11 C11        29.0813  112.4485   41.9893 PO             0 LIG     0.115779
     12 C12        27.9487  111.3096   40.1357 PP             0 LIG     0.115779
     13 C13        24.3265  117.0815   38.2598 PQ             0 LIG     -0.319173
     14 C14        25.7073  118.5781   36.7496 PV             0 LIG     -0.319173
     15 C15        26.9417  115.3527   38.5679 PW             0 LIG     -0.018118
     16 C16        28.2787  114.9653   39.2515 PX             0 LIG     0.036275
     17 C17        26.8973  116.8413   38.1815 PY             0 LIG     0.012268
     18 N1         28.2097  113.7553   40.0979 PZ             0 LIG     -0.191498
     19 N2         25.6062  117.1856   37.4035 QB             0 LIG     0.153200
     20 S1         29.5003  111.1162   40.9287 QC             0 LIG     -0.201542
     21 H1         27.9627  115.1741   44.4915 QD             0 LIG     0.160898
     22 H2         24.4010  111.5863   38.6238 QF             0 LIG     0.160898
     23 H3         29.1986  113.1929   45.3027 QG             0 LIG     0.160898
     24 H4         25.3868  109.3592   39.0490 QH             0 LIG     0.160898
     25 H5         27.4610  115.4370   42.1494 QJ             0 LIG     0.134456
     26 H6         25.6399  113.5964   39.1206 QK             0 LIG     0.134456
     27 H7         29.8877  111.4432   43.7154 QL             0 LIG     0.174337
     28 H8         27.6352  109.1809   40.0332 QM             0 LIG     0.174337
     29 H9         24.4392  117.7535   39.1121 QN             0 LIG     0.158404
     30 H10        24.2128  116.0454   38.5757 QO             0 LIG     0.158404
     31 H11        23.4871  117.3752   37.6282 QP             0 LIG     0.158404
     32 H12        25.8065  119.3156   37.5479 QQ             0 LIG     0.158404
     33 H13        24.7969  118.7331   36.1692 QS             0 LIG     0.158404
     34 H14        26.5819  118.5699   36.0977 QT             0 LIG     0.158404
     35 H15        26.8493  114.8053   37.6316 QU             0 LIG     0.041463
     36 H16        26.0839  115.0273   39.1550 QV             0 LIG     0.041463
     37 H17        29.0586  114.8306   38.5005 QW             0 LIG     0.085391
     38 H18        28.6702  115.7979   39.8385 QX             0 LIG     0.085391
     39 H19        26.9289  117.5098   39.0437 QY             0 LIG     0.073022
     40 H20        27.7195  117.0835   37.5059 QZ             0 LIG     0.073022
     41 H21        25.5241  116.5159   36.6508 RB             0 LIG     0.265740
@<TRIPOS>BOND
        1  1  3  2
        2  1  5  1
        3  1  21  1
        4  2  4  2
        5  2  6  1
        6  2  22  1
        7  3  7  1
        8  3  23  1
        9  4  8  1
        10  4  24  1
        11  5  9  2
        12  5  25  1
        13  6  10  2
        14  6  26  1
        15  7  11  2
        16  7  27  1
        17  8  12  2
        18  8  28  1
        19  9  11  1
        20  9  18  1
        21  10  12  1
        22  10  18  1
        23  11  20  1
        24  12  20  1
        25  13  19  1
        26  13  29  1
        27  13  30  1
        28  13  31  1
        29  14  19  1
        30  14  32  1
        31  14  33  1
        32  14  34  1
        33  15  16  1
        34  15  17  1
        35  15  35  1
        36  15  36  1
        37  16  18  1
        38  16  37  1
        39  16  38  1
        40  17  19  1
        41  17  39  1
        42  17  40  1
        43  19  41  1
@<TRIPOS>SUBSTRUCTURE
       1 LIG             1 RESIDUE    0 **** ROOT      0
