@<TRIPOS>MOLECULE
LIG
41 43
SMALL
USER_CHARGES
@<TRIPOS>ATOM
      1 C1         29.3122  113.7596   36.2861 PA             0 LIG     -0.151978
      2 C2         25.6417  111.4649   40.9036 PB             0 LIG     -0.151978
      3 C3         30.2455  112.7547   36.5075 PD             0 LIG     -0.151978
      4 C4         26.5580  110.4513   41.1553 PE             0 LIG     -0.151978
      5 C5         28.5653  114.2644   37.3489 PF             0 LIG     -0.221382
      6 C6         26.0844  112.7118   40.4668 PH             0 LIG     -0.221382
      7 C7         30.4443  112.2736   37.7965 PI             0 LIG     -0.192007
      8 C8         27.9164  110.6953   40.9878 PJ             0 LIG     -0.192007
      9 C9         28.7240  113.7826   38.6650 PK             0 LIG     0.086899
     10 C10        27.4541  112.9879   40.2666 PN             0 LIG     0.086899
     11 C11        29.7067  112.7868   38.8660 PO             0 LIG     0.115779
     12 C12        28.3643  111.9481   40.5617 PP             0 LIG     0.115779
     13 C13        24.1204  115.9422   43.2306 PQ             0 LIG     -0.319173
     14 C14        23.5200  118.1645   42.1687 PV             0 LIG     -0.319173
     15 C15        25.8664  115.4359   40.6581 PW             0 LIG     -0.018118
     16 C16        27.1786  115.5021   39.8344 PX             0 LIG     0.036275
     17 C17        25.4470  116.8160   41.1937 PY             0 LIG     0.012268
     18 N1         27.9113  114.2217   39.7392 PZ             0 LIG     -0.191498
     19 N2         24.0819  116.7512   41.9170 QB             0 LIG     0.153200
     20 S1         30.0944  112.2202   40.4797 QC             0 LIG     -0.201542
     21 H1         29.1632  114.1470   35.2889 QD             0 LIG     0.160898
     22 H2         24.5858  111.2840   41.0408 QF             0 LIG     0.160898
     23 H3         30.8249  112.3604   35.6857 QG             0 LIG     0.160898
     24 H4         26.2182  109.4828   41.4917 QH             0 LIG     0.160898
     25 H5         27.8604  115.0412   37.1079 QJ             0 LIG     0.134456
     26 H6         25.3229  113.4518   40.2797 QK             0 LIG     0.134456
     27 H7         31.1921  111.5122   37.9664 QL             0 LIG     0.174337
     28 H8         28.6252  109.9106   41.2102 QM             0 LIG     0.174337
     29 H9         24.8668  116.3987   43.8825 QN             0 LIG     0.158404
     30 H10        24.3741  114.9113   42.9872 QO             0 LIG     0.158404
     31 H11        23.1236  115.9889   43.6713 QP             0 LIG     0.158404
     32 H12        24.2107  118.6850   42.8344 QQ             0 LIG     0.158404
     33 H13        22.5348  118.0482   42.6222 QS             0 LIG     0.158404
     34 H14        23.4414  118.6618   41.2011 QT             0 LIG     0.158404
     35 H15        25.0541  115.1160   40.0079 QU             0 LIG     0.041463
     36 H16        25.9152  114.6650   41.4260 QV             0 LIG     0.041463
     37 H17        26.9717  115.8696   38.8282 QW             0 LIG     0.085391
     38 H18        27.8441  116.2737   40.2254 QX             0 LIG     0.085391
     39 H19        26.1585  117.2335   41.9083 QY             0 LIG     0.073022
     40 H20        25.3084  117.5177   40.3694 QZ             0 LIG     0.073022
     41 H21        23.4355  116.2879   41.2929 RB             0 LIG     0.265740
@<TRIPOS>BOND
        1  1  3  2
        2  1  5  1
        3  1  21  1
        4  2  4  2
        5  2  6  1
        6  2  22  1
        7  3  7  1
        8  3  23  1
        9  4  8  1
        10  4  24  1
        11  5  9  2
        12  5  25  1
        13  6  10  2
        14  6  26  1
        15  7  11  2
        16  7  27  1
        17  8  12  2
        18  8  28  1
        19  9  11  1
        20  9  18  1
        21  10  12  1
        22  10  18  1
        23  11  20  1
        24  12  20  1
        25  13  19  1
        26  13  29  1
        27  13  30  1
        28  13  31  1
        29  14  19  1
        30  14  32  1
        31  14  33  1
        32  14  34  1
        33  15  16  1
        34  15  17  1
        35  15  35  1
        36  15  36  1
        37  16  18  1
        38  16  37  1
        39  16  38  1
        40  17  19  1
        41  17  39  1
        42  17  40  1
        43  19  41  1
@<TRIPOS>SUBSTRUCTURE
       1 LIG             1 RESIDUE    0 **** ROOT      0
