@<TRIPOS>MOLECULE
LIG
41 43
SMALL
USER_CHARGES
@<TRIPOS>ATOM
      1 C1         27.7741  110.4389   39.1866 PA             0 LIG     -0.151978
      2 C2         28.9846  113.5391   44.5891 PB             0 LIG     -0.151978
      3 C3         26.5013  110.9620   38.9957 PD             0 LIG     -0.151978
      4 C4         27.7648  114.2013   44.6532 PE             0 LIG     -0.151978
      5 C5         28.7508  111.1975   39.8292 PF             0 LIG     -0.221382
      6 C6         29.5411  113.2219   43.3517 PH             0 LIG     -0.221382
      7 C7         26.2036  112.2348   39.4686 PI             0 LIG     -0.192007
      8 C8         27.0966  114.5264   43.4783 PJ             0 LIG     -0.192007
      9 C9         28.4902  112.5012   40.3001 PK             0 LIG     0.086899
     10 C10        28.9000  113.5551   42.1391 PN             0 LIG     0.086899
     11 C11        27.1766  112.9924   40.1249 PO             0 LIG     0.115779
     12 C12        27.6460  114.1990   42.2364 PP             0 LIG     0.115779
     13 C13        32.3806  111.4075   36.6857 PQ             0 LIG     -0.319173
     14 C14        34.7124  112.0900   37.4095 PV             0 LIG     -0.319173
     15 C15        31.4511  112.3811   39.5336 PW             0 LIG     -0.018118
     16 C16        30.9294  113.4417   40.5376 PX             0 LIG     0.036275
     17 C17        32.7206  112.8499   38.8015 PY             0 LIG     0.012268
     18 N1         29.4954  113.3177   40.8747 PZ             0 LIG     -0.191498
     19 N2         33.2894  111.7396   37.8880 QB             0 LIG     0.153200
     20 S1         26.6979  114.5381   40.8010 QC             0 LIG     -0.201542
     21 H1         28.0073  109.4452   38.8334 QD             0 LIG     0.160898
     22 H2         29.5041  113.2758   45.4987 QF             0 LIG     0.160898
     23 H3         25.7426  110.3772   38.4968 QG             0 LIG     0.160898
     24 H4         27.3317  114.4508   45.6106 QH             0 LIG     0.160898
     25 H5         29.7146  110.7324   39.9443 QJ             0 LIG     0.134456
     26 H6         30.4937  112.7173   43.3701 QK             0 LIG     0.134456
     27 H7         25.2036  112.6244   39.3424 QL             0 LIG     0.174337
     28 H8         26.1360  115.0182   43.5359 QM             0 LIG     0.174337
     29 H9         32.2361  112.3247   36.1126 QN             0 LIG     0.158404
     30 H10        31.4382  111.0192   37.0695 QO             0 LIG     0.158404
     31 H11        32.8881  110.6437   36.0950 QP             0 LIG     0.158404
     32 H12        34.6484  112.9982   36.8078 QQ             0 LIG     0.158404
     33 H13        35.0776  111.2447   36.8248 QS             0 LIG     0.158404
     34 H14        35.3284  112.2376   38.2976 QT             0 LIG     0.158404
     35 H15        31.7433  111.4867   40.0809 QU             0 LIG     0.041463
     36 H16        30.6610  112.0410   38.8654 QV             0 LIG     0.041463
     37 H17        31.5155  113.4079   41.4571 QW             0 LIG     0.085391
     38 H18        31.1320  114.4513   40.1761 QX             0 LIG     0.085391
     39 H19        32.5525  113.7207   38.1654 QY             0 LIG     0.073022
     40 H20        33.5124  113.0733   39.5185 QZ             0 LIG     0.073022
     41 H21        33.3689  110.9030   38.4497 RB             0 LIG     0.265740
@<TRIPOS>BOND
        1  1  3  2
        2  1  5  1
        3  1  21  1
        4  2  4  2
        5  2  6  1
        6  2  22  1
        7  3  7  1
        8  3  23  1
        9  4  8  1
        10  4  24  1
        11  5  9  2
        12  5  25  1
        13  6  10  2
        14  6  26  1
        15  7  11  2
        16  7  27  1
        17  8  12  2
        18  8  28  1
        19  9  11  1
        20  9  18  1
        21  10  12  1
        22  10  18  1
        23  11  20  1
        24  12  20  1
        25  13  19  1
        26  13  29  1
        27  13  30  1
        28  13  31  1
        29  14  19  1
        30  14  32  1
        31  14  33  1
        32  14  34  1
        33  15  16  1
        34  15  17  1
        35  15  35  1
        36  15  36  1
        37  16  18  1
        38  16  37  1
        39  16  38  1
        40  17  19  1
        41  17  39  1
        42  17  40  1
        43  19  41  1
@<TRIPOS>SUBSTRUCTURE
       1 LIG             1 RESIDUE    0 **** ROOT      0
