PMZ1appS
                    3D
 Schrodinger Suite 2019-4.
 41 43  0  0  1  0            999 V2000
   27.9819  109.3775   38.9073 C   0  0  0  0  0  0
   26.3167  115.4491   38.2578 C   0  0  0  0  0  0
   27.0028  109.1965   39.8760 C   0  0  0  0  0  0
   25.3329  115.3036   39.2279 C   0  0  0  0  0  0
   28.6226  110.6091   38.7847 C   0  0  0  0  0  0
   27.4951  114.7106   38.3441 C   0  0  0  0  0  0
   26.6834  110.2427   40.7339 C   0  0  0  0  0  0
   25.5401  114.4335   40.2922 C   0  0  0  0  0  0
   28.3064  111.6990   39.6222 C   0  0  0  0  0  0
   27.7299  113.8032   39.3996 C   0  0  0  0  0  0
   27.3332  111.4742   40.6222 C   0  0  0  0  0  0
   26.7255  113.7007   40.3882 C   0  0  0  0  0  0
   33.9834  112.8204   41.3211 C   0  0  0  0  0  0
   35.2099  113.8189   39.3397 C   0  0  0  0  0  0
   31.3399  113.5798   39.7854 C   0  0  0  0  0  0
   30.1738  113.2972   38.8029 C   0  0  0  0  0  0
   32.7154  113.3526   39.1343 C   0  0  0  0  0  0
   28.8839  112.9816   39.4526 N   0  0  0  0  0  0
   33.8655  113.7444   40.0906 N   0  3  0  0  0  0
   26.9674  112.7083   41.8132 S   0  0  0  0  0  0
   28.2440  108.5640   38.2468 H   0  0  0  0  0  0
   26.1652  116.1304   37.4335 H   0  0  0  0  0  0
   26.5034  108.2437   39.9727 H   0  0  0  0  0  0
   24.4172  115.8728   39.1629 H   0  0  0  0  0  0
   29.3707  110.6812   38.0142 H   0  0  0  0  0  0
   28.2140  114.8616   37.5549 H   0  0  0  0  0  0
   25.9413  110.0864   41.5038 H   0  0  0  0  0  0
   24.7818  114.3446   41.0569 H   0  0  0  0  0  0
   34.1286  111.8008   40.9606 H   0  0  0  0  0  0
   33.0692  112.9150   41.9054 H   0  0  0  0  0  0
   34.8387  113.1630   41.9049 H   0  0  0  0  0  0
   35.4357  112.8214   38.9591 H   0  0  0  0  0  0
   35.9633  114.1580   40.0520 H   0  0  0  0  0  0
   35.0927  114.5416   38.5312 H   0  0  0  0  0  0
   31.3206  114.6310   40.0674 H   0  0  0  0  0  0
   31.2077  113.0469   40.7261 H   0  0  0  0  0  0
   30.0357  114.1454   38.1308 H   0  0  0  0  0  0
   30.4364  112.4975   38.1083 H   0  0  0  0  0  0
   32.8886  112.3136   38.8483 H   0  0  0  0  0  0
   32.8319  113.9930   38.2584 H   0  0  0  0  0  0
   33.6684  114.6768   40.4278 H   0  0  0  0  0  0
  1  3  2  0  0  0
  1  5  1  0  0  0
  1 21  1  0  0  0
  2  4  2  0  0  0
  2  6  1  0  0  0
  2 22  1  0  0  0
  3  7  1  0  0  0
  3 23  1  0  0  0
  4  8  1  0  0  0
  4 24  1  0  0  0
  5  9  2  0  0  0
  5 25  1  0  0  0
  6 10  2  0  0  0
  6 26  1  0  0  0
  7 11  2  0  0  0
  7 27  1  0  0  0
  8 12  2  0  0  0
  8 28  1  0  0  0
  9 11  1  0  0  0
  9 18  1  0  0  0
 10 12  1  0  0  0
 10 18  1  0  0  0
 11 20  1  0  0  0
 12 20  1  0  0  0
 13 19  1  0  0  0
 13 29  1  0  0  0
 13 30  1  0  0  0
 13 31  1  0  0  0
 14 19  1  0  0  0
 14 32  1  0  0  0
 14 33  1  0  0  0
 14 34  1  0  0  0
 15 16  1  0  0  0
 15 17  1  0  0  0
 15 35  1  0  0  0
 15 36  1  0  0  0
 16 18  1  0  0  0
 16 37  1  0  0  0
 16 38  1  0  0  0
 17 19  1  0  0  0
 17 39  1  0  0  0
 17 40  1  0  0  0
 19 41  1  0  0  0
M  CHG  1  19   1
M  END
> <s_m_entry_id>
133

> <s_m_entry_name>
PMZ.1

> <s_m_Source_Path>
/nfs/egallicchio/Dropbox/sims/SAMPL9

> <s_m_Source_File>
PMZ.mol2

> <i_m_Source_File_Index>
1

> <s_m_source_file>
ligprep_4.maegz

> <i_m_source_file_index>
3

> <i_lp_mmshare_version>
47013

> <s_epik_input>
W2NIXTFbY0hdW2NIXVtjSF1jKGMxMilTYzNjKFtjSF1bY0hdW2NIXVtjSF0zKU4yW0NIMl1bQ0gyXVtDSDJdTihbQ0gzXSlbQ0gzXQ==

> <s_epik_cmdline>
J2VwaWtfcHl0aG9uJywgJy1waHQnLCAnNC4wJywgJy1waCcsICc3LjQnLCAnLXRuJywgJzgnLCAnLW1hJywgJzIwMCcsICctaW1hZScsICc8aW5maWxlLm1hZT4nLCAnLW9tYWUnLCAnPG91dGZpbGUubWFlPic=

> <r_epik_Ionization_Penalty>
  0.0034

> <r_epik_Ionization_Penalty_Charging>
  0.0034

> <r_epik_Ionization_Penalty_Neutral>
  0.0000

> <r_epik_State_Penalty>
  0.0024

> <r_epik_Charging_Adjusted_Penalty>
0.0058317545360184

> <i_epik_Tot_Q>
1

> <i_epik_Tot_abs_Q>
1

> <i_f3d_flags>
0

> <s_lp_Force_Field>
OPLS3e

> <r_lp_Energy>
55.741628

> <b_lp_Chiralities_Consistent>
1

> <s_lp_Variant>
PMZ-1

> <s_m_job_name>
ligprep_4

> <s_m_subgroup_title>
ppS

> <s_m_subgroupid>
ppS

> <b_m_subgroup_collapsed>
0

$$$$
