@<TRIPOS>MOLECULE
LIG
41 43
SMALL
USER_CHARGES
@<TRIPOS>ATOM
      1 C1         27.9819  109.3775   38.9073 PA             0 LIG     -0.151978
      2 C2         26.3167  115.4491   38.2578 PB             0 LIG     -0.151978
      3 C3         27.0028  109.1965   39.8760 PD             0 LIG     -0.151978
      4 C4         25.3329  115.3036   39.2279 PE             0 LIG     -0.151978
      5 C5         28.6226  110.6091   38.7847 PF             0 LIG     -0.221382
      6 C6         27.4951  114.7106   38.3441 PH             0 LIG     -0.221382
      7 C7         26.6834  110.2427   40.7339 PI             0 LIG     -0.192007
      8 C8         25.5401  114.4335   40.2922 PJ             0 LIG     -0.192007
      9 C9         28.3064  111.6990   39.6222 PK             0 LIG     0.086899
     10 C10        27.7299  113.8032   39.3996 PN             0 LIG     0.086899
     11 C11        27.3332  111.4742   40.6222 PO             0 LIG     0.115779
     12 C12        26.7255  113.7007   40.3882 PP             0 LIG     0.115779
     13 C13        33.9834  112.8204   41.3211 PQ             0 LIG     -0.319173
     14 C14        35.2099  113.8189   39.3397 PV             0 LIG     -0.319173
     15 C15        31.3399  113.5798   39.7854 PW             0 LIG     -0.018118
     16 C16        30.1738  113.2972   38.8029 PX             0 LIG     0.036275
     17 C17        32.7154  113.3526   39.1343 PY             0 LIG     0.012268
     18 N1         28.8839  112.9816   39.4526 PZ             0 LIG     -0.191498
     19 N2         33.8655  113.7444   40.0906 QB             0 LIG     0.153200
     20 S1         26.9674  112.7083   41.8132 QC             0 LIG     -0.201542
     21 H1         28.2440  108.5640   38.2468 QD             0 LIG     0.160898
     22 H2         26.1652  116.1304   37.4335 QF             0 LIG     0.160898
     23 H3         26.5034  108.2437   39.9727 QG             0 LIG     0.160898
     24 H4         24.4172  115.8728   39.1629 QH             0 LIG     0.160898
     25 H5         29.3707  110.6812   38.0142 QJ             0 LIG     0.134456
     26 H6         28.2140  114.8616   37.5549 QK             0 LIG     0.134456
     27 H7         25.9413  110.0864   41.5038 QL             0 LIG     0.174337
     28 H8         24.7818  114.3446   41.0569 QM             0 LIG     0.174337
     29 H9         34.1286  111.8008   40.9606 QN             0 LIG     0.158404
     30 H10        33.0692  112.9150   41.9054 QO             0 LIG     0.158404
     31 H11        34.8387  113.1630   41.9049 QP             0 LIG     0.158404
     32 H12        35.4357  112.8214   38.9591 QQ             0 LIG     0.158404
     33 H13        35.9633  114.1580   40.0520 QS             0 LIG     0.158404
     34 H14        35.0927  114.5416   38.5312 QT             0 LIG     0.158404
     35 H15        31.3206  114.6310   40.0674 QU             0 LIG     0.041463
     36 H16        31.2077  113.0469   40.7261 QV             0 LIG     0.041463
     37 H17        30.0357  114.1454   38.1308 QW             0 LIG     0.085391
     38 H18        30.4364  112.4975   38.1083 QX             0 LIG     0.085391
     39 H19        32.8886  112.3136   38.8483 QY             0 LIG     0.073022
     40 H20        32.8319  113.9930   38.2584 QZ             0 LIG     0.073022
     41 H21        33.6684  114.6768   40.4278 RB             0 LIG     0.265740
@<TRIPOS>BOND
        1  1  3  2
        2  1  5  1
        3  1  21  1
        4  2  4  2
        5  2  6  1
        6  2  22  1
        7  3  7  1
        8  3  23  1
        9  4  8  1
        10  4  24  1
        11  5  9  2
        12  5  25  1
        13  6  10  2
        14  6  26  1
        15  7  11  2
        16  7  27  1
        17  8  12  2
        18  8  28  1
        19  9  11  1
        20  9  18  1
        21  10  12  1
        22  10  18  1
        23  11  20  1
        24  12  20  1
        25  13  19  1
        26  13  29  1
        27  13  30  1
        28  13  31  1
        29  14  19  1
        30  14  32  1
        31  14  33  1
        32  14  34  1
        33  15  16  1
        34  15  17  1
        35  15  35  1
        36  15  36  1
        37  16  18  1
        38  16  37  1
        39  16  38  1
        40  17  19  1
        41  17  39  1
        42  17  40  1
        43  19  41  1
@<TRIPOS>SUBSTRUCTURE
       1 LIG             1 RESIDUE    0 **** ROOT      0
