bCD
                    3D

147154  0  0  1  0            999 V2000
   23.2718  114.1498   49.8261  C    0  0  2  0  0  0
   21.7076  114.0052   49.7558  C    0  0  1  0  0  0
   21.1079  114.3424   48.3546  C    0  0  2  0  0  0
   21.5138  115.8566   47.9988  C    0  0  1  0  0  0
   23.1007  115.9715   48.1495  C    0  0  1  0  0  0
   23.8370  115.4273   46.8063  C    0  0  0  0  0  0
   26.8766  110.2143   49.2223  C    0  0  2  0  0  0
   25.4706  109.9395   49.8617  C    0  0  1  0  0  0
   24.4174  110.9160   49.2546  C    0  0  2  0  0  0
   24.8917  112.4147   49.4540  C    0  0  1  0  0  0
   26.2760  112.6506   48.7888  C    0  0  1  0  0  0
   26.9088  114.0165   49.0988  C    0  0  0  0  0  0
   28.8502  107.6270   44.8946  C    0  0  2  0  0  0
   28.2937  106.7704   46.0601  C    0  0  1  0  0  0
   27.3223  107.6046   46.9324  C    0  0  2  0  0  0
   27.9412  108.9852   47.3652  C    0  0  1  0  0  0
   28.8133  109.7118   46.2655  C    0  0  1  0  0  0
   29.7572  110.7633   46.9172  C    0  0  0  0  0  0
   25.9800  108.3099   40.2935  C    0  0  2  0  0  0
   25.8621  106.9918   41.1039  C    0  0  1  0  0  0
   26.1750  107.1543   42.6607  C    0  0  2  0  0  0
   27.5195  107.8116   42.8005  C    0  0  1  0  0  0
   27.6521  109.0578   41.9032  C    0  0  1  0  0  0
   29.0686  109.6855   41.8586  C    0  0  0  0  0  0
   21.1024  110.5174   39.7476  C    0  0  2  0  0  0
   21.2397  109.1538   40.5357  C    0  0  1  0  0  0
   22.6175  109.0235   41.1189  C    0  0  2  0  0  0
   23.7201  109.1639   40.0704  C    0  0  1  0  0  0
   23.4725  110.5912   39.3647  C    0  0  1  0  0  0
   24.5096  110.8807   38.2197  C    0  0  0  0  0  0
   18.8451  114.9762   41.7693  C    0  0  2  0  0  0
   18.1795  113.4843   41.8570  C    0  0  1  0  0  0
   19.2789  112.4653   41.7490  C    0  0  2  0  0  0
   20.2065  112.6795   40.6084  C    0  0  1  0  0  0
   20.8245  114.1176   40.5227  C    0  0  1  0  0  0
   21.4974  114.3972   39.1535  C    0  0  0  0  0  0
   20.2776  117.2602   46.4116  C    0  0  1  0  0  0
   18.8353  116.7420   46.2594  C    0  0  1  0  0  0
   18.7443  115.6764   45.1120  C    0  0  2  0  0  0
   19.4074  116.2462   43.7778  C    0  0  1  0  0  0
   20.7949  116.9148   43.9990  C    0  0  1  0  0  0
   21.2592  117.7639   42.7199  C    0  0  0  0  0  0
   21.2940  112.6951   50.1998  O    0  0  0  0  0  0
   19.7046  114.1567   48.4390  O    0  0  0  0  0  0
   21.0610  116.1267   46.6424  O    0  0  0  0  0  0
   23.6827  115.4395   49.4009  O    0  0  0  0  0  0
   25.1891  115.7569   46.8275  O    0  0  0  0  0  0
   25.0383  108.5595   49.8016  O    0  0  0  0  0  0
   23.1320  110.6780   49.8909  O    0  0  0  0  0  0
   23.8651  113.2649   48.8863  O    0  0  0  0  0  0
   27.1942  111.6304   49.2333  O    0  0  0  0  0  0
   26.9463  114.2482   50.5475  O    0  0  0  0  0  0
   27.6062  105.5684   45.5656  O    0  0  0  0  0  0
   26.5863  106.8317   47.9701  O    0  0  0  0  0  0
   26.8773  109.8438   47.8839  O    0  0  0  0  0  0
   29.5540  108.7379   45.4905  O    0  0  0  0  0  0
   30.2160  111.6667   45.8811  O    0  0  0  0  0  0
   24.6819  106.2273   40.8609  O    0  0  0  0  0  0
   26.1215  105.8695   43.4016  O    0  0  0  0  0  0
   27.8097  108.1665   44.1424  O    0  0  0  0  0  0
   27.2759  108.7988   40.4964  O    0  0  0  0  0  0
   29.1840  110.5196   40.7087  O    0  0  0  0  0  0
   20.2743  109.0515   41.5965  O    0  0  0  0  0  0
   22.5680  107.8323   41.8597  O    0  0  0  0  0  0
   25.0074  109.2286   40.7970  O    0  0  0  0  0  0
   22.1949  110.5671   38.7552  O    0  0  0  0  0  0
   24.4830  109.8864   37.1315  O    0  0  0  0  0  0
   17.3456  113.2221   43.0755  O    0  0  0  0  0  0
   18.5736  111.1305   41.6436  O    0  0  0  0  0  0
   21.2304  111.6175   40.7179  O    0  0  0  0  0  0
   19.6905  114.9934   40.5702  O    0  0  0  0  0  0
   21.8622  115.7750   38.9361  O    0  0  0  0  0  0
   18.4155  116.1608   47.4555  O    0  0  0  0  0  0
   17.3776  115.2630   44.8764  O    0  0  0  0  0  0
   19.6762  115.1209   42.9407  O    0  0  0  0  0  0
   20.7298  117.8525   45.0981  O    0  0  0  0  0  0
   20.4892  118.9036   42.5149  O    0  0  0  0  0  0
   26.2815  114.7806   48.6344  H    0  0  0  0  0  0
   27.8925  114.1607   48.7248  H    0  0  0  0  0  0
   22.0496  112.1111   50.0423  H    0  0  0  0  0  0
   19.4883  113.2028   48.4213  H    0  0  0  0  0  0
   25.3012  116.3882   47.6189  H    0  0  0  0  0  0
   25.5179  108.0767   49.0640  H    0  0  0  0  0  0
   22.9906  109.6514   49.8994  H    0  0  0  0  0  0
   27.5011  115.0871   50.6938  H    0  0  0  0  0  0
   27.0706  105.8075   44.7655  H    0  0  0  0  0  0
   25.8282  106.3416   47.4828  H    0  0  0  0  0  0
   30.8936  111.1503   45.3722  H    0  0  0  0  0  0
   23.9019  106.7891   41.2024  H    0  0  0  0  0  0
   25.1146  105.7367   43.5411  H    0  0  0  0  0  0
   28.7873  110.0037   40.0010  H    0  0  0  0  0  0
   19.6904  109.8741   41.5682  H    0  0  0  0  0  0
   21.6205  107.8545   42.1474  H    0  0  0  0  0  0
   24.7138  110.4369   36.3130  H    0  0  0  0  0  0
   17.5193  114.0081   43.6693  H    0  0  0  0  0  0
   17.7545  111.1906   42.1383  H    0  0  0  0  0  0
   20.9616  116.1104   38.7781  H    0  0  0  0  0  0
   19.0305  115.3953   47.7466  H    0  0  0  0  0  0
   17.0649  114.7749   45.6924  H    0  0  0  0  0  0
   20.6520  119.4425   43.3441  H    0  0  0  0  0  0
   23.5972  114.0602   50.8806  H    0  0  0  0  0  0
   21.2972  114.8098   50.3447  H    0  0  0  0  0  0
   21.5356  113.6330   47.6404  H    0  0  0  0  0  0
   20.9903  116.4020   48.7671  H    0  0  0  0  0  0
   23.3981  117.0036   48.1516  H    0  0  0  0  0  0
   23.6790  114.3239   46.7533  H    0  0  0  0  0  0
   23.4082  115.9611   45.9130  H    0  0  0  0  0  0
   27.7320  109.6817   49.6641  H    0  0  0  0  0  0
   25.6505  110.2423   50.9109  H    0  0  0  0  0  0
   24.4184  110.7553   48.1699  H    0  0  0  0  0  0
   25.1316  112.6601   50.4850  H    0  0  0  0  0  0
   26.1236  112.4761   47.7512  H    0  0  0  0  0  0
   29.5623  106.9649   44.2841  H    0  0  0  0  0  0
   29.1735  106.4153   46.5492  H    0  0  0  0  0  0
   26.5549  108.0112   46.2040  H    0  0  0  0  0  0
   28.6662  108.8276   48.1600  H    0  0  0  0  0  0
   28.2003  110.3144   45.6308  H    0  0  0  0  0  0
   30.5816  110.2331   47.3883  H    0  0  0  0  0  0
   29.2616  111.2845   47.7375  H    0  0  0  0  0  0
   25.8630  108.0555   39.2214  H    0  0  0  0  0  0
   26.7327  106.4841   40.6904  H    0  0  0  0  0  0
   25.4592  107.8317   43.0391  H    0  0  0  0  0  0
   28.2888  107.1103   42.4528  H    0  0  0  0  0  0
   26.9510  109.8722   42.2255  H    0  0  0  0  0  0
   29.1808  110.1836   42.8278  H    0  0  0  0  0  0
   29.8448  108.9161   41.7845  H    0  0  0  0  0  0
   20.1370  110.5979   39.1821  H    0  0  0  0  0  0
   21.0939  108.2862   39.8478  H    0  0  0  0  0  0
   22.7043  109.8513   41.8016  H    0  0  0  0  0  0
   23.6659  108.3748   39.2841  H    0  0  0  0  0  0
   23.5748  111.4359   40.0255  H    0  0  0  0  0  0
   24.2764  111.9600   37.8530  H    0  0  0  0  0  0
   25.4942  110.8105   38.7283  H    0  0  0  0  0  0
   18.1115  115.8026   41.7618  H    0  0  0  0  0  0
   17.5473  113.3052   41.0019  H    0  0  0  0  0  0
   19.7205  112.5472   42.7870  H    0  0  0  0  0  0
   19.6592  112.5249   39.6868  H    0  0  0  0  0  0
   21.4911  114.2976   41.3299  H    0  0  0  0  0  0
   22.3056  113.7174   39.0038  H    0  0  0  0  0  0
   20.7948  114.0362   38.4485  H    0  0  0  0  0  0
   20.2994  117.9618   47.2539  H    0  0  0  0  0  0
   18.1276  117.6304   46.0158  H    0  0  0  0  0  0
   19.3626  114.8414   45.4642  H    0  0  0  0  0  0
   18.7045  116.8915   43.2367  H    0  0  0  0  0  0
   21.6275  116.2197   44.1637  H    0  0  0  0  0  0
   21.2996  117.1078   41.8417  H    0  0  0  0  0  0
   22.2862  118.1195   42.8690  H    0  0  0  0  0  0
  1  2  1  0  0  0
  1 46  1  0  0  0
  1 50  1  0  0  0
  1101  1  0  0  0
  2  3  1  0  0  0
  2 43  1  0  0  0
  2102  1  0  0  0
  3  4  1  0  0  0
  3 44  1  0  0  0
  3103  1  0  0  0
  4  5  1  0  0  0
  4 45  1  0  0  0
  4104  1  0  0  0
  5  6  1  0  0  0
  5 46  1  0  0  0
  5105  1  0  0  0
  6 47  1  0  0  0
  6106  1  0  0  0
  6107  1  0  0  0
  7  8  1  0  0  0
  7 51  1  0  0  0
  7 55  1  0  0  0
  7108  1  0  0  0
  8  9  1  0  0  0
  8 48  1  0  0  0
  8109  1  0  0  0
  9 10  1  0  0  0
  9 49  1  0  0  0
  9110  1  0  0  0
 10 11  1  0  0  0
 10 50  1  0  0  0
 10111  1  0  0  0
 11 12  1  0  0  0
 11 51  1  0  0  0
 11112  1  0  0  0
 12 52  1  0  0  0
 12 78  1  0  0  0
 12 79  1  0  0  0
 13 14  1  0  0  0
 13 56  1  0  0  0
 13 60  1  0  0  0
 13113  1  0  0  0
 14 15  1  0  0  0
 14 53  1  0  0  0
 14114  1  0  0  0
 15 16  1  0  0  0
 15 54  1  0  0  0
 15115  1  0  0  0
 16 17  1  0  0  0
 16 55  1  0  0  0
 16116  1  0  0  0
 17 18  1  0  0  0
 17 56  1  0  0  0
 17117  1  0  0  0
 18 57  1  0  0  0
 18118  1  0  0  0
 18119  1  0  0  0
 19 20  1  0  0  0
 19 61  1  0  0  0
 19 65  1  0  0  0
 19120  1  0  0  0
 20 21  1  0  0  0
 20 58  1  0  0  0
 20121  1  0  0  0
 21 22  1  0  0  0
 21 59  1  0  0  0
 21122  1  0  0  0
 22 23  1  0  0  0
 22 60  1  0  0  0
 22123  1  0  0  0
 23 24  1  0  0  0
 23 61  1  0  0  0
 23124  1  0  0  0
 24 62  1  0  0  0
 24125  1  0  0  0
 24126  1  0  0  0
 25 26  1  0  0  0
 25 66  1  0  0  0
 25 70  1  0  0  0
 25127  1  0  0  0
 26 27  1  0  0  0
 26 63  1  0  0  0
 26128  1  0  0  0
 27 28  1  0  0  0
 27 64  1  0  0  0
 27129  1  0  0  0
 28 29  1  0  0  0
 28 65  1  0  0  0
 28130  1  0  0  0
 29 30  1  0  0  0
 29 66  1  0  0  0
 29131  1  0  0  0
 30 67  1  0  0  0
 30132  1  0  0  0
 30133  1  0  0  0
 31 32  1  0  0  0
 31 71  1  0  0  0
 31 75  1  0  0  0
 31134  1  0  0  0
 32 33  1  0  0  0
 32 68  1  0  0  0
 32135  1  0  0  0
 33 34  1  0  0  0
 33 69  1  0  0  0
 33136  1  0  0  0
 34 35  1  0  0  0
 34 70  1  0  0  0
 34137  1  0  0  0
 35 36  1  0  0  0
 35 71  1  0  0  0
 35138  1  0  0  0
 36 72  1  0  0  0
 36139  1  0  0  0
 36140  1  0  0  0
 37 38  1  0  0  0
 37 45  1  0  0  0
 37 76  1  0  0  0
 37141  1  0  0  0
 38 39  1  0  0  0
 38 73  1  0  0  0
 38142  1  0  0  0
 39 40  1  0  0  0
 39 74  1  0  0  0
 39143  1  0  0  0
 40 41  1  0  0  0
 40 75  1  0  0  0
 40144  1  0  0  0
 41 42  1  0  0  0
 41 76  1  0  0  0
 41145  1  0  0  0
 42 77  1  0  0  0
 42146  1  0  0  0
 42147  1  0  0  0
 43 80  1  0  0  0
 44 81  1  0  0  0
 47 82  1  0  0  0
 48 83  1  0  0  0
 49 84  1  0  0  0
 52 85  1  0  0  0
 53 86  1  0  0  0
 54 87  1  0  0  0
 57 88  1  0  0  0
 58 89  1  0  0  0
 59 90  1  0  0  0
 62 91  1  0  0  0
 63 92  1  0  0  0
 64 93  1  0  0  0
 67 94  1  0  0  0
 68 95  1  0  0  0
 69 96  1  0  0  0
 72 97  1  0  0  0
 73 98  1  0  0  0
 74 99  1  0  0  0
 77100  1  0  0  0
M  END
> <s_m_entry_id>
15

> <s_m_Source_Path>
/home/emilio/Dropbox/sims/SAMPL9/work/receptor

> <s_m_Source_File>
bCD.mol2

> <i_m_Source_File_Index>
1

$$$$

