@<TRIPOS>MOLECULE
LIG
147 154
SMALL
USER_CHARGES
@<TRIPOS>ATOM
      1 C1         23.2718  114.1498   49.8261 aa             2 LIG     0.429587
      2 C2         21.7076  114.0052   49.7558 ab             1 LIG     0.201964
      3 C3         21.1079  114.3424   48.3546 ad             2 LIG     0.216381
      4 C4         21.5138  115.8566   47.9988 ae             1 LIG     0.192567
      5 C5         23.1007  115.9715   48.1495 af             1 LIG     0.192567
      6 C6         23.8370  115.4273   46.8063 ah             0 LIG     0.180165
      7 C7         26.8766  110.2143   49.2223 ai             2 LIG     0.429587
      8 C8         25.4706  109.9395   49.8617 aj             1 LIG     0.201964
      9 C9         24.4174  110.9160   49.2546 ak             2 LIG     0.216381
     10 C10        24.8917  112.4147   49.4540 an             1 LIG     0.192567
     11 C11        26.2760  112.6506   48.7888 ao             1 LIG     0.192567
     12 C12        26.9088  114.0165   49.0988 ap             0 LIG     0.180165
     13 C13        28.8502  107.6270   44.8946 aq             2 LIG     0.429587
     14 C14        28.2937  106.7704   46.0601 av             1 LIG     0.201964
     15 C15        27.3223  107.6046   46.9324 aw             2 LIG     0.216381
     16 C16        27.9412  108.9852   47.3652 ax             1 LIG     0.192567
     17 C17        28.8133  109.7118   46.2655 ay             1 LIG     0.192567
     18 C18        29.7572  110.7633   46.9172 az             0 LIG     0.180165
     19 C19        25.9800  108.3099   40.2935 bb             2 LIG     0.429587
     20 C20        25.8621  106.9918   41.1039 bc             1 LIG     0.201964
     21 C21        26.1750  107.1543   42.6607 bd             2 LIG     0.216381
     22 C22        27.5195  107.8116   42.8005 bf             1 LIG     0.192567
     23 C23        27.6521  109.0578   41.9032 bg             1 LIG     0.192567
     24 C24        29.0686  109.6855   41.8586 bh             0 LIG     0.180165
     25 C25        21.1024  110.5174   39.7476 bj             2 LIG     0.429587
     26 C26        21.2397  109.1538   40.5357 bk             1 LIG     0.201964
     27 C27        22.6175  109.0235   41.1189 bl             2 LIG     0.216381
     28 C28        23.7201  109.1639   40.0704 bm             1 LIG     0.192567
     29 C29        23.4725  110.5912   39.3647 bn             1 LIG     0.192567
     30 C30        24.5096  110.8807   38.2197 bo             0 LIG     0.180165
     31 C31        18.8451  114.9762   41.7693 bp             2 LIG     0.429587
     32 C32        18.1795  113.4843   41.8570 bq             1 LIG     0.201964
     33 C33        19.2789  112.4653   41.7490 bs             2 LIG     0.216381
     34 C34        20.2065  112.6795   40.6084 bt             1 LIG     0.192567
     35 C35        20.8245  114.1176   40.5227 bu             1 LIG     0.192567
     36 C36        21.4974  114.3972   39.1535 bv             0 LIG     0.180165
     37 C37        20.2776  117.2602   46.4116 bw             1 LIG     0.429587
     38 C38        18.8353  116.7420   46.2594 bx             1 LIG     0.201964
     39 C39        18.7443  115.6764   45.1120 by             2 LIG     0.216381
     40 C40        19.4074  116.2462   43.7778 bz             1 LIG     0.192567
     41 C41        20.7949  116.9148   43.9990 cb             1 LIG     0.192567
     42 C42        21.2592  117.7639   42.7199 ci             0 LIG     0.180165
     43 O1         21.2940  112.6951   50.1998 cj             0 LIG     -0.741075
     44 O2         19.7046  114.1567   48.4390 ck             0 LIG     -0.741075
     45 O3         21.0610  116.1267   46.6424 cm             0 LIG     -0.544165
     46 O4         23.6827  115.4395   49.4009 cn             0 LIG     -0.544165
     47 O5         25.1891  115.7569   46.8275 ct             0 LIG     -0.741075
     48 O6         25.0383  108.5595   49.8016 cw             0 LIG     -0.741075
     49 O7         23.1320  110.6780   49.8909 da             0 LIG     -0.741075
     50 O8         23.8651  113.2649   48.8863 db             0 LIG     -0.544165
     51 O9         27.1942  111.6304   49.2333 dc             0 LIG     -0.544165
     52 O10        26.9463  114.2482   50.5475 dd             0 LIG     -0.741075
     53 O11        27.6062  105.5684   45.5656 de             0 LIG     -0.741075
     54 O12        26.5863  106.8317   47.9701 df             0 LIG     -0.741075
     55 O13        26.8773  109.8438   47.8839 dg             0 LIG     -0.544165
     56 O14        29.5540  108.7379   45.4905 dh             0 LIG     -0.544165
     57 O15        30.2160  111.6667   45.8811 di             0 LIG     -0.741075
     58 O16        24.6819  106.2273   40.8609 dj             0 LIG     -0.741075
     59 O17        26.1215  105.8695   43.4016 dk             0 LIG     -0.741075
     60 O18        27.8097  108.1665   44.1424 dl             0 LIG     -0.544165
     61 O19        27.2759  108.7988   40.4964 dm             0 LIG     -0.544165
     62 O20        29.1840  110.5196   40.7087 dn             0 LIG     -0.741075
     63 O21        20.2743  109.0515   41.5965 do             0 LIG     -0.741075
     64 O22        22.5680  107.8323   41.8597 dp             0 LIG     -0.741075
     65 O23        25.0074  109.2286   40.7970 dq             0 LIG     -0.544165
     66 O24        22.1949  110.5671   38.7552 dr             0 LIG     -0.544165
     67 O25        24.4830  109.8864   37.1315 ds             0 LIG     -0.741075
     68 O26        17.3456  113.2221   43.0755 dt             0 LIG     -0.741075
     69 O27        18.5736  111.1305   41.6436 dv             0 LIG     -0.741075
     70 O28        21.2304  111.6175   40.7179 dw             0 LIG     -0.544165
     71 O29        19.6905  114.9934   40.5702 dx             0 LIG     -0.544165
     72 O30        21.8622  115.7750   38.9361 dz             0 LIG     -0.741075
     73 O31        18.4155  116.1608   47.4555 ea             0 LIG     -0.741075
     74 O32        17.3776  115.2630   44.8764 eb             0 LIG     -0.741075
     75 O33        19.6762  115.1209   42.9407 ec             0 LIG     -0.544165
     76 O34        20.7298  117.8525   45.0981 ed             0 LIG     -0.544165
     77 O35        20.4892  118.9036   42.5149 ee             0 LIG     -0.741075
     78 H1         26.2815  114.7806   48.6344 ef             0 LIG     0.065605
     79 H2         27.8925  114.1607   48.7248 eg             0 LIG     0.065605
     80 H3         22.0496  112.1111   50.0423 eh             0 LIG     0.491666
     81 H4         19.4883  113.2028   48.4213 ei             0 LIG     0.491666
     82 H5         25.3012  116.3882   47.6189 ej             0 LIG     0.491666
     83 H6         25.5179  108.0767   49.0640 ek             0 LIG     0.491666
     84 H7         22.9906  109.6514   49.8994 el             0 LIG     0.491666
     85 H8         27.5011  115.0871   50.6938 em             0 LIG     0.491666
     86 H9         27.0706  105.8075   44.7655 en             0 LIG     0.491666
     87 H10        25.8282  106.3416   47.4828 eo             0 LIG     0.491666
     88 H11        30.8936  111.1503   45.3722 eq             0 LIG     0.491666
     89 H12        23.9019  106.7891   41.2024 es             0 LIG     0.491666
     90 H13        25.1146  105.7367   43.5411 et             0 LIG     0.491666
     91 H14        28.7873  110.0037   40.0010 ev             0 LIG     0.491666
     92 H15        19.6904  109.8741   41.5682 ew             0 LIG     0.491666
     93 H16        21.6205  107.8545   42.1474 ex             0 LIG     0.491666
     94 H17        24.7138  110.4369   36.3130 ey             0 LIG     0.491666
     95 H18        17.5193  114.0081   43.6693 ez             0 LIG     0.491666
     96 H19        17.7545  111.1906   42.1383 fa             0 LIG     0.491666
     97 H20        20.9616  116.1104   38.7781 fb             0 LIG     0.491666
     98 H21        19.0305  115.3953   47.7466 fc             0 LIG     0.491666
     99 H22        17.0649  114.7749   45.6924 fd             0 LIG     0.491666
    100 H23        20.6520  119.4425   43.3441 ff             0 LIG     0.491666
    101 H24        23.5972  114.0602   50.8806 fg             0 LIG     0.064779
    102 H25        21.2972  114.8098   50.3447 fh             0 LIG     0.061814
    103 H26        21.5356  113.6330   47.6404 fi             0 LIG     0.054082
    104 H27        20.9903  116.4020   48.7671 fj             0 LIG     0.055721
    105 H28        23.3981  117.0036   48.1516 fk             0 LIG     0.055721
    106 H29        23.6790  114.3239   46.7533 fl             0 LIG     0.065605
    107 H30        23.4082  115.9611   45.9130 fm             0 LIG     0.065605
    108 H31        27.7320  109.6817   49.6641 fn             0 LIG     0.064779
    109 H32        25.6505  110.2423   50.9109 fo             0 LIG     0.061814
    110 H33        24.4184  110.7553   48.1699 fp             0 LIG     0.054082
    111 H34        25.1316  112.6601   50.4850 fq             0 LIG     0.055721
    112 H35        26.1236  112.4761   47.7512 fs             0 LIG     0.055721
    113 H36        29.5623  106.9649   44.2841 ft             0 LIG     0.064779
    114 H37        29.1735  106.4153   46.5492 fu             0 LIG     0.061814
    115 H38        26.5549  108.0112   46.2040 fv             0 LIG     0.054082
    116 H39        28.6662  108.8276   48.1600 fw             0 LIG     0.055721
    117 H40        28.2003  110.3144   45.6308 fx             0 LIG     0.055721
    118 H41        30.5816  110.2331   47.3883 fy             0 LIG     0.065605
    119 H42        29.2616  111.2845   47.7375 fz             0 LIG     0.065605
    120 H43        25.8630  108.0555   39.2214 gb             0 LIG     0.064779
    121 H44        26.7327  106.4841   40.6904 gc             0 LIG     0.061814
    122 H45        25.4592  107.8317   43.0391 gf             0 LIG     0.054082
    123 H46        28.2888  107.1103   42.4528 gg             0 LIG     0.055721
    124 H47        26.9510  109.8722   42.2255 gh             0 LIG     0.055721
    125 H48        29.1808  110.1836   42.8278 gi             0 LIG     0.065605
    126 H49        29.8448  108.9161   41.7845 gj             0 LIG     0.065605
    127 H50        20.1370  110.5979   39.1821 gk             0 LIG     0.064779
    128 H51        21.0939  108.2862   39.8478 gl             0 LIG     0.061814
    129 H52        22.7043  109.8513   41.8016 gm             0 LIG     0.054082
    130 H53        23.6659  108.3748   39.2841 gn             0 LIG     0.055721
    131 H54        23.5748  111.4359   40.0255 go             0 LIG     0.055721
    132 H55        24.2764  111.9600   37.8530 gp             0 LIG     0.065605
    133 H56        25.4942  110.8105   38.7283 gq             0 LIG     0.065605
    134 H57        18.1115  115.8026   41.7618 gr             0 LIG     0.064779
    135 H58        17.5473  113.3052   41.0019 gs             0 LIG     0.061814
    136 H59        19.7205  112.5472   42.7870 gt             0 LIG     0.054082
    137 H60        19.6592  112.5249   39.6868 gu             0 LIG     0.055721
    138 H61        21.4911  114.2976   41.3299 gv             0 LIG     0.055721
    139 H62        22.3056  113.7174   39.0038 gw             0 LIG     0.065605
    140 H63        20.7948  114.0362   38.4485 gx             0 LIG     0.065605
    141 H64        20.2994  117.9618   47.2539 gy             0 LIG     0.064779
    142 H65        18.1276  117.6304   46.0158 gz             0 LIG     0.061814
    143 H66        19.3626  114.8414   45.4642 hb             0 LIG     0.054082
    144 H67        18.7045  116.8915   43.2367 hd             0 LIG     0.055721
    145 H68        21.6275  116.2197   44.1637 hh             0 LIG     0.055721
    146 H69        21.2996  117.1078   41.8417 hi             0 LIG     0.065605
    147 H70        22.2862  118.1195   42.8690 hj             0 LIG     0.065605
@<TRIPOS>BOND
        1  1  2  1
        2  1  46  1
        3  1  50  1
        4  1  101  1
        5  2  3  1
        6  2  43  1
        7  2  102  1
        8  3  4  1
        9  3  44  1
        10  3  103  1
        11  4  5  1
        12  4  45  1
        13  4  104  1
        14  5  6  1
        15  5  46  1
        16  5  105  1
        17  6  47  1
        18  6  106  1
        19  6  107  1
        20  7  8  1
        21  7  51  1
        22  7  55  1
        23  7  108  1
        24  8  9  1
        25  8  48  1
        26  8  109  1
        27  9  10  1
        28  9  49  1
        29  9  110  1
        30  10  11  1
        31  10  50  1
        32  10  111  1
        33  11  12  1
        34  11  51  1
        35  11  112  1
        36  12  52  1
        37  12  78  1
        38  12  79  1
        39  13  14  1
        40  13  56  1
        41  13  60  1
        42  13  113  1
        43  14  15  1
        44  14  53  1
        45  14  114  1
        46  15  16  1
        47  15  54  1
        48  15  115  1
        49  16  17  1
        50  16  55  1
        51  16  116  1
        52  17  18  1
        53  17  56  1
        54  17  117  1
        55  18  57  1
        56  18  118  1
        57  18  119  1
        58  19  20  1
        59  19  61  1
        60  19  65  1
        61  19  120  1
        62  20  21  1
        63  20  58  1
        64  20  121  1
        65  21  22  1
        66  21  59  1
        67  21  122  1
        68  22  23  1
        69  22  60  1
        70  22  123  1
        71  23  24  1
        72  23  61  1
        73  23  124  1
        74  24  62  1
        75  24  125  1
        76  24  126  1
        77  25  26  1
        78  25  66  1
        79  25  70  1
        80  25  127  1
        81  26  27  1
        82  26  63  1
        83  26  128  1
        84  27  28  1
        85  27  64  1
        86  27  129  1
        87  28  29  1
        88  28  65  1
        89  28  130  1
        90  29  30  1
        91  29  66  1
        92  29  131  1
        93  30  67  1
        94  30  132  1
        95  30  133  1
        96  31  32  1
        97  31  71  1
        98  31  75  1
        99  31  134  1
        100  32  33  1
        101  32  68  1
        102  32  135  1
        103  33  34  1
        104  33  69  1
        105  33  136  1
        106  34  35  1
        107  34  70  1
        108  34  137  1
        109  35  36  1
        110  35  71  1
        111  35  138  1
        112  36  72  1
        113  36  139  1
        114  36  140  1
        115  37  38  1
        116  37  45  1
        117  37  76  1
        118  37  141  1
        119  38  39  1
        120  38  73  1
        121  38  142  1
        122  39  40  1
        123  39  74  1
        124  39  143  1
        125  40  41  1
        126  40  75  1
        127  40  144  1
        128  41  42  1
        129  41  76  1
        130  41  145  1
        131  42  77  1
        132  42  146  1
        133  42  147  1
        134  43  80  1
        135  44  81  1
        136  47  82  1
        137  48  83  1
        138  49  84  1
        139  52  85  1
        140  53  86  1
        141  54  87  1
        142  57  88  1
        143  58  89  1
        144  59  90  1
        145  62  91  1
        146  63  92  1
        147  64  93  1
        148  67  94  1
        149  68  95  1
        150  69  96  1
        151  72  97  1
        152  73  98  1
        153  74  99  1
        154  77  100  1
@<TRIPOS>SUBSTRUCTURE
       1 LIG             1 RESIDUE    0 **** ROOT      0

