bCD
                    3D

147154  0  0  1  0            999 V2000
   29.7809  109.5603   49.1116  C    0  0  2  0  0  0
   28.3661  108.8743   48.9019  C    0  0  1  0  0  0
   27.9818  109.1384   47.4203  C    0  0  2  0  0  0
   28.0255  110.6706   46.9628  C    0  0  1  0  0  0
   29.4754  111.1928   47.3186  C    0  0  1  0  0  0
   29.6484  112.6208   46.9272  C    0  0  0  0  0  0
   34.7761  107.8790   48.0818  C    0  0  2  0  0  0
   33.8640  106.6596   48.3671  C    0  0  1  0  0  0
   32.3385  107.0903   48.0836  C    0  0  2  0  0  0
   31.9573  108.4250   48.8046  C    0  0  1  0  0  0
   33.0880  109.5686   48.6140  C    0  0  1  0  0  0
   32.9251  110.8409   49.4334  C    0  0  0  0  0  0
   37.6660  108.7404   43.7483  C    0  0  2  0  0  0
   37.6867  107.4496   44.5250  C    0  0  1  0  0  0
   36.3187  107.1370   45.2582  C    0  0  2  0  0  0
   35.9058  108.4099   46.0303  C    0  0  1  0  0  0
   35.7060  109.4985   44.9896  C    0  0  1  0  0  0
   35.2513  110.9120   45.6134  C    0  0  0  0  0  0
   36.9880  109.2150   38.3634  C    0  0  2  0  0  0
   38.0595  108.3091   38.9469  C    0  0  1  0  0  0
   37.7242  107.9460   40.4350  C    0  0  2  0  0  0
   37.4315  109.1646   41.3054  C    0  0  1  0  0  0
   36.4268  110.1013   40.5985  C    0  0  1  0  0  0
   36.1051  111.4000   41.3963  C    0  0  0  0  0  0
   31.9748  108.7590   36.5168  C    0  0  2  0  0  0
   32.7037  107.3310   36.4643  C    0  0  1  0  0  0
   33.8306  107.3135   37.5178  C    0  0  2  0  0  0
   34.8410  108.5468   37.3015  C    0  0  1  0  0  0
   34.0376  109.9404   37.2549  C    0  0  1  0  0  0
   34.9044  111.1287   36.7503  C    0  0  0  0  0  0
   27.7878  110.2132   39.7875  C    0  0  2  0  0  0
   27.9230  108.6534   39.4100  C    0  0  1  0  0  0
   29.3864  108.2712   38.9976  C    0  0  2  0  0  0
   29.9847  109.2631   37.9188  C    0  0  1  0  0  0
   29.7873  110.8058   38.2195  C    0  0  1  0  0  0
   30.8358  111.4478   39.1285  C    0  0  0  0  0  0
   26.9780  111.4569   44.9070  C    0  0  1  0  0  0
   25.9450  110.6927   44.0088  C    0  0  1  0  0  0
   26.7588  110.1021   42.7733  C    0  0  2  0  0  0
   27.5940  111.1343   42.0289  C    0  0  1  0  0  0
   28.5028  111.8226   43.0744  C    0  0  1  0  0  0
   29.6184  112.7456   42.4634  C    0  0  0  0  0  0
   28.5701  107.4349   49.1197  O    0  0  0  0  0  0
   26.6935  108.5351   47.0795  O    0  0  0  0  0  0
   27.8642  110.5598   45.5047  O    0  0  0  0  0  0
   29.7056  110.9292   48.7199  O    0  0  0  0  0  0
   30.9614  113.1170   47.2374  O    0  0  0  0  0  0
   34.2255  105.4618   47.5901  O    0  0  0  0  0  0
   31.3574  106.1803   48.4317  O    0  0  0  0  0  0
   30.7273  108.8487   48.2413  O    0  0  0  0  0  0
   34.3540  108.9483   48.8819  O    0  0  0  0  0  0
   32.7320  110.5566   50.8366  O    0  0  0  0  0  0
   38.1957  106.3644   43.8143  O    0  0  0  0  0  0
   36.4599  106.0923   46.2262  O    0  0  0  0  0  0
   34.6853  108.2429   46.7162  O    0  0  0  0  0  0
   37.0910  109.8068   44.4724  O    0  0  0  0  0  0
   36.0625  111.3860   46.6235  O    0  0  0  0  0  0
   38.3064  107.1939   38.0487  O    0  0  0  0  0  0
   38.8513  107.0676   40.9853  O    0  0  0  0  0  0
   36.8841  108.5734   42.5613  O    0  0  0  0  0  0
   36.9254  110.3791   39.2576  O    0  0  0  0  0  0
   37.1889  112.3332   41.3768  O    0  0  0  0  0  0
   31.6979  106.2824   36.6773  O    0  0  0  0  0  0
   34.5683  106.0433   37.5217  O    0  0  0  0  0  0
   35.7291  108.4938   38.4356  O    0  0  0  0  0  0
   32.9269  109.8171   36.3225  O    0  0  0  0  0  0
   34.1668  112.4500   36.7650  O    0  0  0  0  0  0
   27.5494  107.7862   40.5099  O    0  0  0  0  0  0
   29.5347  106.9235   38.5429  O    0  0  0  0  0  0
   31.3646  108.8949   37.8027  O    0  0  0  0  0  0
   28.4351  111.0593   38.7462  O    0  0  0  0  0  0
   30.6552  112.8799   39.2699  O    0  0  0  0  0  0
   25.3966  109.6267   44.7245  O    0  0  0  0  0  0
   25.9077  109.4314   41.8442  O    0  0  0  0  0  0
   28.4099  110.4084   41.0128  O    0  0  0  0  0  0
   27.7103  112.4640   44.1118  O    0  0  0  0  0  0
   29.0019  113.8555   41.8318  O    0  0  0  0  0  0
   32.0501  111.4331   49.0962  H    0  0  0  0  0  0
   33.8258  111.4114   49.1774  H    0  0  0  0  0  0
   29.4660  107.1510   48.8367  H    0  0  0  0  0  0
   26.1205  108.4501   47.8549  H    0  0  0  0  0  0
   30.9489  113.2935   48.2163  H    0  0  0  0  0  0
   34.9724  105.6557   47.0035  H    0  0  0  0  0  0
   31.6963  105.2873   48.1375  H    0  0  0  0  0  0
   33.5886  110.7649   51.3147  H    0  0  0  0  0  0
   38.2361  105.5647   44.4785  H    0  0  0  0  0  0
   37.1381  105.4158   45.8582  H    0  0  0  0  0  0
   36.9205  110.9667   46.4009  H    0  0  0  0  0  0
   37.9002  107.4307   37.2528  H    0  0  0  0  0  0
   38.7565  106.8398   41.8950  H    0  0  0  0  0  0
   37.0131  112.7556   40.4785  H    0  0  0  0  0  0
   32.2525  105.4883   36.4070  H    0  0  0  0  0  0
   35.1409  106.1734   38.2574  H    0  0  0  0  0  0
   33.5049  112.5445   36.0110  H    0  0  0  0  0  0
   27.0169  108.3197   41.1437  H    0  0  0  0  0  0
   30.4755  106.9781   38.2801  H    0  0  0  0  0  0
   29.6585  112.9821   39.2958  H    0  0  0  0  0  0
   26.0251  109.3128   45.4708  H    0  0  0  0  0  0
   24.9863  109.4154   42.2169  H    0  0  0  0  0  0
   28.3810  114.3249   42.5284  H    0  0  0  0  0  0
   29.9788  109.5157   50.1037  H    0  0  0  0  0  0
   27.6587  109.3211   49.6712  H    0  0  0  0  0  0
   28.7481  108.6958   46.7514  H    0  0  0  0  0  0
   27.3069  111.3178   47.3977  H    0  0  0  0  0  0
   30.2353  110.7339   46.7024  H    0  0  0  0  0  0
   29.5249  112.7289   45.8428  H    0  0  0  0  0  0
   29.0482  113.3663   47.4409  H    0  0  0  0  0  0
   35.8156  107.6736   48.3847  H    0  0  0  0  0  0
   33.9456  106.6067   49.4214  H    0  0  0  0  0  0
   32.1871  107.2527   47.0320  H    0  0  0  0  0  0
   31.8086  108.2596   49.8898  H    0  0  0  0  0  0
   32.9386  109.9569   47.6177  H    0  0  0  0  0  0
   38.6642  109.0913   43.4564  H    0  0  0  0  0  0
   38.3999  107.6585   45.3274  H    0  0  0  0  0  0
   35.5867  106.9012   44.5417  H    0  0  0  0  0  0
   36.7496  108.6889   46.6640  H    0  0  0  0  0  0
   34.9669  109.2116   44.2560  H    0  0  0  0  0  0
   34.2793  110.6524   45.9537  H    0  0  0  0  0  0
   35.1895  111.6405   44.7648  H    0  0  0  0  0  0
   37.3357  109.4655   37.3685  H    0  0  0  0  0  0
   38.9455  108.9582   39.1348  H    0  0  0  0  0  0
   36.7830  107.3843   40.4582  H    0  0  0  0  0  0
   38.3317  109.7816   41.4367  H    0  0  0  0  0  0
   35.6098  109.5115   40.5396  H    0  0  0  0  0  0
   35.1517  111.9018   41.1456  H    0  0  0  0  0  0
   35.9873  111.0671   42.4643  H    0  0  0  0  0  0
   31.1642  108.8399   35.7341  H    0  0  0  0  0  0
   33.2457  107.1808   35.5593  H    0  0  0  0  0  0
   33.3158  107.5595   38.4449  H    0  0  0  0  0  0
   35.4212  108.3463   36.4027  H    0  0  0  0  0  0
   33.8084  110.1878   38.2475  H    0  0  0  0  0  0
   35.8612  111.2243   37.3638  H    0  0  0  0  0  0
   35.2665  110.9270   35.7359  H    0  0  0  0  0  0
   26.6757  110.4218   39.7661  H    0  0  0  0  0  0
   27.2862  108.4639   38.5485  H    0  0  0  0  0  0
   29.9134  108.5194   39.9556  H    0  0  0  0  0  0
   29.4139  108.9633   36.9900  H    0  0  0  0  0  0
   29.9234  111.2214   37.2155  H    0  0  0  0  0  0
   30.7958  110.9278   40.1092  H    0  0  0  0  0  0
   31.7629  111.2927   38.6182  H    0  0  0  0  0  0
   26.4515  111.9193   45.6823  H    0  0  0  0  0  0
   25.1142  111.2814   43.6190  H    0  0  0  0  0  0
   27.3967  109.3185   43.2006  H    0  0  0  0  0  0
   27.0128  111.9767   41.6341  H    0  0  0  0  0  0
   29.0518  111.0001   43.5494  H    0  0  0  0  0  0
   30.2873  112.1483   41.8315  H    0  0  0  0  0  0
   30.2741  113.1603   43.2390  H    0  0  0  0  0  0
  1  2  1  0  0  0
  1 46  1  0  0  0
  1 50  1  0  0  0
  1101  1  0  0  0
  2  3  1  0  0  0
  2 43  1  0  0  0
  2102  1  0  0  0
  3  4  1  0  0  0
  3 44  1  0  0  0
  3103  1  0  0  0
  4  5  1  0  0  0
  4 45  1  0  0  0
  4104  1  0  0  0
  5  6  1  0  0  0
  5 46  1  0  0  0
  5105  1  0  0  0
  6 47  1  0  0  0
  6106  1  0  0  0
  6107  1  0  0  0
  7  8  1  0  0  0
  7 51  1  0  0  0
  7 55  1  0  0  0
  7108  1  0  0  0
  8  9  1  0  0  0
  8 48  1  0  0  0
  8109  1  0  0  0
  9 10  1  0  0  0
  9 49  1  0  0  0
  9110  1  0  0  0
 10 11  1  0  0  0
 10 50  1  0  0  0
 10111  1  0  0  0
 11 12  1  0  0  0
 11 51  1  0  0  0
 11112  1  0  0  0
 12 52  1  0  0  0
 12 78  1  0  0  0
 12 79  1  0  0  0
 13 14  1  0  0  0
 13 56  1  0  0  0
 13 60  1  0  0  0
 13113  1  0  0  0
 14 15  1  0  0  0
 14 53  1  0  0  0
 14114  1  0  0  0
 15 16  1  0  0  0
 15 54  1  0  0  0
 15115  1  0  0  0
 16 17  1  0  0  0
 16 55  1  0  0  0
 16116  1  0  0  0
 17 18  1  0  0  0
 17 56  1  0  0  0
 17117  1  0  0  0
 18 57  1  0  0  0
 18118  1  0  0  0
 18119  1  0  0  0
 19 20  1  0  0  0
 19 61  1  0  0  0
 19 65  1  0  0  0
 19120  1  0  0  0
 20 21  1  0  0  0
 20 58  1  0  0  0
 20121  1  0  0  0
 21 22  1  0  0  0
 21 59  1  0  0  0
 21122  1  0  0  0
 22 23  1  0  0  0
 22 60  1  0  0  0
 22123  1  0  0  0
 23 24  1  0  0  0
 23 61  1  0  0  0
 23124  1  0  0  0
 24 62  1  0  0  0
 24125  1  0  0  0
 24126  1  0  0  0
 25 26  1  0  0  0
 25 66  1  0  0  0
 25 70  1  0  0  0
 25127  1  0  0  0
 26 27  1  0  0  0
 26 63  1  0  0  0
 26128  1  0  0  0
 27 28  1  0  0  0
 27 64  1  0  0  0
 27129  1  0  0  0
 28 29  1  0  0  0
 28 65  1  0  0  0
 28130  1  0  0  0
 29 30  1  0  0  0
 29 66  1  0  0  0
 29131  1  0  0  0
 30 67  1  0  0  0
 30132  1  0  0  0
 30133  1  0  0  0
 31 32  1  0  0  0
 31 71  1  0  0  0
 31 75  1  0  0  0
 31134  1  0  0  0
 32 33  1  0  0  0
 32 68  1  0  0  0
 32135  1  0  0  0
 33 34  1  0  0  0
 33 69  1  0  0  0
 33136  1  0  0  0
 34 35  1  0  0  0
 34 70  1  0  0  0
 34137  1  0  0  0
 35 36  1  0  0  0
 35 71  1  0  0  0
 35138  1  0  0  0
 36 72  1  0  0  0
 36139  1  0  0  0
 36140  1  0  0  0
 37 38  1  0  0  0
 37 45  1  0  0  0
 37 76  1  0  0  0
 37141  1  0  0  0
 38 39  1  0  0  0
 38 73  1  0  0  0
 38142  1  0  0  0
 39 40  1  0  0  0
 39 74  1  0  0  0
 39143  1  0  0  0
 40 41  1  0  0  0
 40 75  1  0  0  0
 40144  1  0  0  0
 41 42  1  0  0  0
 41 76  1  0  0  0
 41145  1  0  0  0
 42 77  1  0  0  0
 42146  1  0  0  0
 42147  1  0  0  0
 43 80  1  0  0  0
 44 81  1  0  0  0
 47 82  1  0  0  0
 48 83  1  0  0  0
 49 84  1  0  0  0
 52 85  1  0  0  0
 53 86  1  0  0  0
 54 87  1  0  0  0
 57 88  1  0  0  0
 58 89  1  0  0  0
 59 90  1  0  0  0
 62 91  1  0  0  0
 63 92  1  0  0  0
 64 93  1  0  0  0
 67 94  1  0  0  0
 68 95  1  0  0  0
 69 96  1  0  0  0
 72 97  1  0  0  0
 73 98  1  0  0  0
 74 99  1  0  0  0
 77100  1  0  0  0
M  END
> <s_m_entry_id>
15

> <s_m_Source_Path>
/home/emilio/Dropbox/sims/SAMPL9/work/receptor

> <s_m_Source_File>
bCD.mol2

> <i_m_Source_File_Index>
1

$$$$

