@<TRIPOS>MOLECULE
LIG
147 154
SMALL
USER_CHARGES
@<TRIPOS>ATOM
      1 C1         29.7809  109.5603   49.1116 aa             2 LIG     0.429587
      2 C2         28.3661  108.8743   48.9019 ab             1 LIG     0.201964
      3 C3         27.9818  109.1384   47.4203 ad             2 LIG     0.216381
      4 C4         28.0255  110.6706   46.9628 ae             1 LIG     0.192567
      5 C5         29.4754  111.1928   47.3186 af             1 LIG     0.192567
      6 C6         29.6484  112.6208   46.9272 ah             0 LIG     0.180165
      7 C7         34.7761  107.8790   48.0818 ai             2 LIG     0.429587
      8 C8         33.8640  106.6596   48.3671 aj             1 LIG     0.201964
      9 C9         32.3385  107.0903   48.0836 ak             2 LIG     0.216381
     10 C10        31.9573  108.4250   48.8046 an             1 LIG     0.192567
     11 C11        33.0880  109.5686   48.6140 ao             1 LIG     0.192567
     12 C12        32.9251  110.8409   49.4334 ap             0 LIG     0.180165
     13 C13        37.6660  108.7404   43.7483 aq             2 LIG     0.429587
     14 C14        37.6867  107.4496   44.5250 av             1 LIG     0.201964
     15 C15        36.3187  107.1370   45.2582 aw             2 LIG     0.216381
     16 C16        35.9058  108.4099   46.0303 ax             1 LIG     0.192567
     17 C17        35.7060  109.4985   44.9896 ay             1 LIG     0.192567
     18 C18        35.2513  110.9120   45.6134 az             0 LIG     0.180165
     19 C19        36.9880  109.2150   38.3634 bb             2 LIG     0.429587
     20 C20        38.0595  108.3091   38.9469 bc             1 LIG     0.201964
     21 C21        37.7242  107.9460   40.4350 bd             2 LIG     0.216381
     22 C22        37.4315  109.1646   41.3054 bf             1 LIG     0.192567
     23 C23        36.4268  110.1013   40.5985 bg             1 LIG     0.192567
     24 C24        36.1051  111.4000   41.3963 bh             0 LIG     0.180165
     25 C25        31.9748  108.7590   36.5168 bj             2 LIG     0.429587
     26 C26        32.7037  107.3310   36.4643 bk             1 LIG     0.201964
     27 C27        33.8306  107.3135   37.5178 bl             2 LIG     0.216381
     28 C28        34.8410  108.5468   37.3015 bm             1 LIG     0.192567
     29 C29        34.0376  109.9404   37.2549 bn             1 LIG     0.192567
     30 C30        34.9044  111.1287   36.7503 bo             0 LIG     0.180165
     31 C31        27.7878  110.2132   39.7875 bp             2 LIG     0.429587
     32 C32        27.9230  108.6534   39.4100 bq             1 LIG     0.201964
     33 C33        29.3864  108.2712   38.9976 bs             2 LIG     0.216381
     34 C34        29.9847  109.2631   37.9188 bt             1 LIG     0.192567
     35 C35        29.7873  110.8058   38.2195 bu             1 LIG     0.192567
     36 C36        30.8358  111.4478   39.1285 bv             0 LIG     0.180165
     37 C37        26.9780  111.4569   44.9070 bw             1 LIG     0.429587
     38 C38        25.9450  110.6927   44.0088 bx             1 LIG     0.201964
     39 C39        26.7588  110.1021   42.7733 by             2 LIG     0.216381
     40 C40        27.5940  111.1343   42.0289 bz             1 LIG     0.192567
     41 C41        28.5028  111.8226   43.0744 cb             1 LIG     0.192567
     42 C42        29.6184  112.7456   42.4634 ci             0 LIG     0.180165
     43 O1         28.5701  107.4349   49.1197 cj             0 LIG     -0.741075
     44 O2         26.6935  108.5351   47.0795 ck             0 LIG     -0.741075
     45 O3         27.8642  110.5598   45.5047 cm             0 LIG     -0.544165
     46 O4         29.7056  110.9292   48.7199 cn             0 LIG     -0.544165
     47 O5         30.9614  113.1170   47.2374 ct             0 LIG     -0.741075
     48 O6         34.2255  105.4618   47.5901 cw             0 LIG     -0.741075
     49 O7         31.3574  106.1803   48.4317 da             0 LIG     -0.741075
     50 O8         30.7273  108.8487   48.2413 db             0 LIG     -0.544165
     51 O9         34.3540  108.9483   48.8819 dc             0 LIG     -0.544165
     52 O10        32.7320  110.5566   50.8366 dd             0 LIG     -0.741075
     53 O11        38.1957  106.3644   43.8143 de             0 LIG     -0.741075
     54 O12        36.4599  106.0923   46.2262 df             0 LIG     -0.741075
     55 O13        34.6853  108.2429   46.7162 dg             0 LIG     -0.544165
     56 O14        37.0910  109.8068   44.4724 dh             0 LIG     -0.544165
     57 O15        36.0625  111.3860   46.6235 di             0 LIG     -0.741075
     58 O16        38.3064  107.1939   38.0487 dj             0 LIG     -0.741075
     59 O17        38.8513  107.0676   40.9853 dk             0 LIG     -0.741075
     60 O18        36.8841  108.5734   42.5613 dl             0 LIG     -0.544165
     61 O19        36.9254  110.3791   39.2576 dm             0 LIG     -0.544165
     62 O20        37.1889  112.3332   41.3768 dn             0 LIG     -0.741075
     63 O21        31.6979  106.2824   36.6773 do             0 LIG     -0.741075
     64 O22        34.5683  106.0433   37.5217 dp             0 LIG     -0.741075
     65 O23        35.7291  108.4938   38.4356 dq             0 LIG     -0.544165
     66 O24        32.9269  109.8171   36.3225 dr             0 LIG     -0.544165
     67 O25        34.1668  112.4500   36.7650 ds             0 LIG     -0.741075
     68 O26        27.5494  107.7862   40.5099 dt             0 LIG     -0.741075
     69 O27        29.5347  106.9235   38.5429 dv             0 LIG     -0.741075
     70 O28        31.3646  108.8949   37.8027 dw             0 LIG     -0.544165
     71 O29        28.4351  111.0593   38.7462 dx             0 LIG     -0.544165
     72 O30        30.6552  112.8799   39.2699 dz             0 LIG     -0.741075
     73 O31        25.3966  109.6267   44.7245 ea             0 LIG     -0.741075
     74 O32        25.9077  109.4314   41.8442 eb             0 LIG     -0.741075
     75 O33        28.4099  110.4084   41.0128 ec             0 LIG     -0.544165
     76 O34        27.7103  112.4640   44.1118 ed             0 LIG     -0.544165
     77 O35        29.0019  113.8555   41.8318 ee             0 LIG     -0.741075
     78 H1         32.0501  111.4331   49.0962 ef             0 LIG     0.065605
     79 H2         33.8258  111.4114   49.1774 eg             0 LIG     0.065605
     80 H3         29.4660  107.1510   48.8367 eh             0 LIG     0.491666
     81 H4         26.1205  108.4501   47.8549 ei             0 LIG     0.491666
     82 H5         30.9489  113.2935   48.2163 ej             0 LIG     0.491666
     83 H6         34.9724  105.6557   47.0035 ek             0 LIG     0.491666
     84 H7         31.6963  105.2873   48.1375 el             0 LIG     0.491666
     85 H8         33.5886  110.7649   51.3147 em             0 LIG     0.491666
     86 H9         38.2361  105.5647   44.4785 en             0 LIG     0.491666
     87 H10        37.1381  105.4158   45.8582 eo             0 LIG     0.491666
     88 H11        36.9205  110.9667   46.4009 eq             0 LIG     0.491666
     89 H12        37.9002  107.4307   37.2528 es             0 LIG     0.491666
     90 H13        38.7565  106.8398   41.8950 et             0 LIG     0.491666
     91 H14        37.0131  112.7556   40.4785 ev             0 LIG     0.491666
     92 H15        32.2525  105.4883   36.4070 ew             0 LIG     0.491666
     93 H16        35.1409  106.1734   38.2574 ex             0 LIG     0.491666
     94 H17        33.5049  112.5445   36.0110 ey             0 LIG     0.491666
     95 H18        27.0169  108.3197   41.1437 ez             0 LIG     0.491666
     96 H19        30.4755  106.9781   38.2801 fa             0 LIG     0.491666
     97 H20        29.6585  112.9821   39.2958 fb             0 LIG     0.491666
     98 H21        26.0251  109.3128   45.4708 fc             0 LIG     0.491666
     99 H22        24.9863  109.4154   42.2169 fd             0 LIG     0.491666
    100 H23        28.3810  114.3249   42.5284 ff             0 LIG     0.491666
    101 H24        29.9788  109.5157   50.1037 fg             0 LIG     0.064779
    102 H25        27.6587  109.3211   49.6712 fh             0 LIG     0.061814
    103 H26        28.7481  108.6958   46.7514 fi             0 LIG     0.054082
    104 H27        27.3069  111.3178   47.3977 fj             0 LIG     0.055721
    105 H28        30.2353  110.7339   46.7024 fk             0 LIG     0.055721
    106 H29        29.5249  112.7289   45.8428 fl             0 LIG     0.065605
    107 H30        29.0482  113.3663   47.4409 fm             0 LIG     0.065605
    108 H31        35.8156  107.6736   48.3847 fn             0 LIG     0.064779
    109 H32        33.9456  106.6067   49.4214 fo             0 LIG     0.061814
    110 H33        32.1871  107.2527   47.0320 fp             0 LIG     0.054082
    111 H34        31.8086  108.2596   49.8898 fq             0 LIG     0.055721
    112 H35        32.9386  109.9569   47.6177 fs             0 LIG     0.055721
    113 H36        38.6642  109.0913   43.4564 ft             0 LIG     0.064779
    114 H37        38.3999  107.6585   45.3274 fu             0 LIG     0.061814
    115 H38        35.5867  106.9012   44.5417 fv             0 LIG     0.054082
    116 H39        36.7496  108.6889   46.6640 fw             0 LIG     0.055721
    117 H40        34.9669  109.2116   44.2560 fx             0 LIG     0.055721
    118 H41        34.2793  110.6524   45.9537 fy             0 LIG     0.065605
    119 H42        35.1895  111.6405   44.7648 fz             0 LIG     0.065605
    120 H43        37.3357  109.4655   37.3685 gb             0 LIG     0.064779
    121 H44        38.9455  108.9582   39.1348 gc             0 LIG     0.061814
    122 H45        36.7830  107.3843   40.4582 gf             0 LIG     0.054082
    123 H46        38.3317  109.7816   41.4367 gg             0 LIG     0.055721
    124 H47        35.6098  109.5115   40.5396 gh             0 LIG     0.055721
    125 H48        35.1517  111.9018   41.1456 gi             0 LIG     0.065605
    126 H49        35.9873  111.0671   42.4643 gj             0 LIG     0.065605
    127 H50        31.1642  108.8399   35.7341 gk             0 LIG     0.064779
    128 H51        33.2457  107.1808   35.5593 gl             0 LIG     0.061814
    129 H52        33.3158  107.5595   38.4449 gm             0 LIG     0.054082
    130 H53        35.4212  108.3463   36.4027 gn             0 LIG     0.055721
    131 H54        33.8084  110.1878   38.2475 go             0 LIG     0.055721
    132 H55        35.8612  111.2243   37.3638 gp             0 LIG     0.065605
    133 H56        35.2665  110.9270   35.7359 gq             0 LIG     0.065605
    134 H57        26.6757  110.4218   39.7661 gr             0 LIG     0.064779
    135 H58        27.2862  108.4639   38.5485 gs             0 LIG     0.061814
    136 H59        29.9134  108.5194   39.9556 gt             0 LIG     0.054082
    137 H60        29.4139  108.9633   36.9900 gu             0 LIG     0.055721
    138 H61        29.9234  111.2214   37.2155 gv             0 LIG     0.055721
    139 H62        30.7958  110.9278   40.1092 gw             0 LIG     0.065605
    140 H63        31.7629  111.2927   38.6182 gx             0 LIG     0.065605
    141 H64        26.4515  111.9193   45.6823 gy             0 LIG     0.064779
    142 H65        25.1142  111.2814   43.6190 gz             0 LIG     0.061814
    143 H66        27.3967  109.3185   43.2006 hb             0 LIG     0.054082
    144 H67        27.0128  111.9767   41.6341 hd             0 LIG     0.055721
    145 H68        29.0518  111.0001   43.5494 hh             0 LIG     0.055721
    146 H69        30.2873  112.1483   41.8315 hi             0 LIG     0.065605
    147 H70        30.2741  113.1603   43.2390 hj             0 LIG     0.065605
@<TRIPOS>BOND
        1  1  2  1
        2  1  46  1
        3  1  50  1
        4  1  101  1
        5  2  3  1
        6  2  43  1
        7  2  102  1
        8  3  4  1
        9  3  44  1
        10  3  103  1
        11  4  5  1
        12  4  45  1
        13  4  104  1
        14  5  6  1
        15  5  46  1
        16  5  105  1
        17  6  47  1
        18  6  106  1
        19  6  107  1
        20  7  8  1
        21  7  51  1
        22  7  55  1
        23  7  108  1
        24  8  9  1
        25  8  48  1
        26  8  109  1
        27  9  10  1
        28  9  49  1
        29  9  110  1
        30  10  11  1
        31  10  50  1
        32  10  111  1
        33  11  12  1
        34  11  51  1
        35  11  112  1
        36  12  52  1
        37  12  78  1
        38  12  79  1
        39  13  14  1
        40  13  56  1
        41  13  60  1
        42  13  113  1
        43  14  15  1
        44  14  53  1
        45  14  114  1
        46  15  16  1
        47  15  54  1
        48  15  115  1
        49  16  17  1
        50  16  55  1
        51  16  116  1
        52  17  18  1
        53  17  56  1
        54  17  117  1
        55  18  57  1
        56  18  118  1
        57  18  119  1
        58  19  20  1
        59  19  61  1
        60  19  65  1
        61  19  120  1
        62  20  21  1
        63  20  58  1
        64  20  121  1
        65  21  22  1
        66  21  59  1
        67  21  122  1
        68  22  23  1
        69  22  60  1
        70  22  123  1
        71  23  24  1
        72  23  61  1
        73  23  124  1
        74  24  62  1
        75  24  125  1
        76  24  126  1
        77  25  26  1
        78  25  66  1
        79  25  70  1
        80  25  127  1
        81  26  27  1
        82  26  63  1
        83  26  128  1
        84  27  28  1
        85  27  64  1
        86  27  129  1
        87  28  29  1
        88  28  65  1
        89  28  130  1
        90  29  30  1
        91  29  66  1
        92  29  131  1
        93  30  67  1
        94  30  132  1
        95  30  133  1
        96  31  32  1
        97  31  71  1
        98  31  75  1
        99  31  134  1
        100  32  33  1
        101  32  68  1
        102  32  135  1
        103  33  34  1
        104  33  69  1
        105  33  136  1
        106  34  35  1
        107  34  70  1
        108  34  137  1
        109  35  36  1
        110  35  71  1
        111  35  138  1
        112  36  72  1
        113  36  139  1
        114  36  140  1
        115  37  38  1
        116  37  45  1
        117  37  76  1
        118  37  141  1
        119  38  39  1
        120  38  73  1
        121  38  142  1
        122  39  40  1
        123  39  74  1
        124  39  143  1
        125  40  41  1
        126  40  75  1
        127  40  144  1
        128  41  42  1
        129  41  76  1
        130  41  145  1
        131  42  77  1
        132  42  146  1
        133  42  147  1
        134  43  80  1
        135  44  81  1
        136  47  82  1
        137  48  83  1
        138  49  84  1
        139  52  85  1
        140  53  86  1
        141  54  87  1
        142  57  88  1
        143  58  89  1
        144  59  90  1
        145  62  91  1
        146  63  92  1
        147  64  93  1
        148  67  94  1
        149  68  95  1
        150  69  96  1
        151  72  97  1
        152  73  98  1
        153  74  99  1
        154  77  100  1
@<TRIPOS>SUBSTRUCTURE
       1 LIG             1 RESIDUE    0 **** ROOT      0

