bCD
                    3D

147154  0  0  1  0            999 V2000
   24.4701  110.2603   50.3992  C    0  0  2  0  0  0
   22.9587  110.1556   49.9945  C    0  0  1  0  0  0
   22.7510  110.7607   48.5463  C    0  0  2  0  0  0
   23.4799  112.1201   48.3315  C    0  0  1  0  0  0
   24.9237  112.0226   48.7855  C    0  0  1  0  0  0
   25.6139  113.4005   48.7793  C    0  0  0  0  0  0
   28.3491  106.5402   50.0371  C    0  0  2  0  0  0
   26.9751  106.2147   50.6369  C    0  0  1  0  0  0
   25.8407  107.1232   50.0726  C    0  0  2  0  0  0
   26.2379  108.5831   50.1943  C    0  0  1  0  0  0
   27.6355  108.8461   49.4692  C    0  0  1  0  0  0
   28.1371  110.3435   49.5440  C    0  0  0  0  0  0
   30.3235  103.5884   46.1189  C    0  0  2  0  0  0
   29.0026  102.9930   46.8805  C    0  0  1  0  0  0
   28.1649  104.2064   47.5011  C    0  0  2  0  0  0
   29.0368  105.0702   48.3225  C    0  0  1  0  0  0
   30.2598  105.6007   47.5909  C    0  0  1  0  0  0
   31.1740  106.2744   48.5954  C    0  0  0  0  0  0
   30.3137  105.1683   41.0485  C    0  0  2  0  0  0
   29.4989  103.8391   41.3289  C    0  0  1  0  0  0
   29.1853  103.9052   42.8598  C    0  0  2  0  0  0
   30.4087  104.1181   43.7621  C    0  0  1  0  0  0
   31.2920  105.3141   43.3566  C    0  0  1  0  0  0
   32.7373  105.3724   44.0541  C    0  0  0  0  0  0
   28.6151  110.0983   39.7112  C    0  0  2  0  0  0
   28.1166  108.7508   38.8893  C    0  0  1  0  0  0
   28.0830  107.5715   39.9209  C    0  0  2  0  0  0
   29.4867  107.4331   40.4716  C    0  0  1  0  0  0
   30.0600  108.7134   41.1653  C    0  0  1  0  0  0
   31.5593  108.6118   41.5691  C    0  0  0  0  0  0
   25.0544  113.5490   41.9194  C    0  0  2  0  0  0
   24.8258  112.9267   40.5429  C    0  0  1  0  0  0
   25.6088  111.6514   40.3786  C    0  0  2  0  0  0
   27.0616  111.7276   40.8890  C    0  0  1  0  0  0
   27.0735  112.3501   42.2729  C    0  0  1  0  0  0
   28.4911  112.4493   42.8644  C    0  0  0  0  0  0
   22.5012  113.4019   46.4536  C    0  0  1  0  0  0
   21.5616  112.8879   45.3412  C    0  0  1  0  0  0
   22.4622  112.3909   44.1218  C    0  0  2  0  0  0
   23.5272  113.4383   43.7411  C    0  0  1  0  0  0
   24.2647  114.0042   44.9973  C    0  0  1  0  0  0
   25.1798  115.2719   44.7364  C    0  0  0  0  0  0
   22.4240  108.8078   50.1890  O    0  0  0  0  0  0
   21.3631  110.7687   48.1486  O    0  0  0  0  0  0
   23.4269  112.3307   46.8815  O    0  0  0  0  0  0
   24.9703  111.5074   50.1070  O    0  0  0  0  0  0
   25.3419  114.1241   49.9929  O    0  0  0  0  0  0
   26.6163  104.8308   50.7225  O    0  0  0  0  0  0
   24.6025  106.8104   50.7384  O    0  0  0  0  0  0
   25.2100  109.3430   49.5146  O    0  0  0  0  0  0
   28.6474  107.9449   50.0730  O    0  0  0  0  0  0
   29.4633  110.4615   49.0056  O    0  0  0  0  0  0
   28.1083  102.2005   45.9809  O    0  0  0  0  0  0
   27.0282  103.6935   48.2677  O    0  0  0  0  0  0
   28.3185  106.1887   48.6651  O    0  0  0  0  0  0
   30.9530  104.4826   47.0314  O    0  0  0  0  0  0
   32.5262  106.3972   48.0605  O    0  0  0  0  0  0
   28.2733  103.8694   40.5443  O    0  0  0  0  0  0
   28.3448  102.7306   43.2085  O    0  0  0  0  0  0
   29.8427  104.4696   45.0428  O    0  0  0  0  0  0
   31.4750  105.2665   41.9252  O    0  0  0  0  0  0
   33.7040  106.0978   43.3410  O    0  0  0  0  0  0
   26.8196  108.9754   38.3204  O    0  0  0  0  0  0
   27.8089  106.2721   39.3314  O    0  0  0  0  0  0
   29.4877  106.3463   41.4204  O    0  0  0  0  0  0
   29.9770  109.9213   40.3117  O    0  0  0  0  0  0
   32.3748  108.5066   40.4539  O    0  0  0  0  0  0
   23.4056  112.7640   40.2483  O    0  0  0  0  0  0
   25.5258  111.0332   39.0955  O    0  0  0  0  0  0
   27.7010  110.4061   40.8418  O    0  0  0  0  0  0
   26.4381  113.6198   42.1959  O    0  0  0  0  0  0
   29.1715  113.4446   42.2253  O    0  0  0  0  0  0
   20.6960  111.8040   45.7997  O    0  0  0  0  0  0
   21.6234  112.2429   42.9834  O    0  0  0  0  0  0
   24.4124  112.7309   42.8336  O    0  0  0  0  0  0
   23.2919  114.4074   45.9606  O    0  0  0  0  0  0
   24.4844  116.4549   44.2948  O    0  0  0  0  0  0
   28.0585  110.8116   50.5647  H    0  0  0  0  0  0
   27.5079  111.0519   48.9285  H    0  0  0  0  0  0
   23.1913  108.2139   50.5651  H    0  0  0  0  0  0
   21.2881  111.0240   47.1540  H    0  0  0  0  0  0
   25.7085  113.4827   50.6316  H    0  0  0  0  0  0
   26.8857  104.5073   49.8801  H    0  0  0  0  0  0
   24.4233  105.8777   50.4102  H    0  0  0  0  0  0
   29.7699  111.3816   48.7884  H    0  0  0  0  0  0
   28.1014  102.6372   45.1353  H    0  0  0  0  0  0
   26.4052  103.1703   47.6839  H    0  0  0  0  0  0
   32.5159  105.5363   47.6260  H    0  0  0  0  0  0
   28.1559  104.7899   40.2555  H    0  0  0  0  0  0
   28.8681  101.8766   43.0431  H    0  0  0  0  0  0
   33.7259  105.7289   42.4176  H    0  0  0  0  0  0
   26.4349  109.7414   38.8951  H    0  0  0  0  0  0
   27.3387  106.4121   38.4713  H    0  0  0  0  0  0
   32.0326  109.2739   39.9398  H    0  0  0  0  0  0
   23.0800  112.0723   40.8264  H    0  0  0  0  0  0
   24.9786  111.6345   38.4934  H    0  0  0  0  0  0
   28.8406  114.2988   42.6293  H    0  0  0  0  0  0
   19.8518  112.2778   45.9878  H    0  0  0  0  0  0
   20.8691  112.9145   43.0122  H    0  0  0  0  0  0
   23.7848  116.7204   44.9846  H    0  0  0  0  0  0
   24.6352  110.0397   51.4749  H    0  0  0  0  0  0
   22.3715  110.8419   50.7454  H    0  0  0  0  0  0
   23.3276  110.1681   47.8579  H    0  0  0  0  0  0
   23.0511  112.9995   48.8583  H    0  0  0  0  0  0
   25.4500  111.4314   48.0777  H    0  0  0  0  0  0
   26.7178  113.2297   48.7174  H    0  0  0  0  0  0
   25.2889  114.0102   47.8662  H    0  0  0  0  0  0
   29.1183  106.0273   50.5743  H    0  0  0  0  0  0
   27.0594  106.5371   51.7038  H    0  0  0  0  0  0
   25.6767  107.0045   48.9770  H    0  0  0  0  0  0
   26.2611  108.8651   51.2505  H    0  0  0  0  0  0
   27.4494  108.5612   48.4294  H    0  0  0  0  0  0
   30.9434  102.7125   45.8017  H    0  0  0  0  0  0
   29.3457  102.3778   47.6335  H    0  0  0  0  0  0
   27.7556  104.8616   46.6952  H    0  0  0  0  0  0
   29.3858  104.4439   49.1463  H    0  0  0  0  0  0
   30.0440  106.4295   46.8782  H    0  0  0  0  0  0
   31.2666  105.5713   49.4077  H    0  0  0  0  0  0
   30.7281  107.1690   49.0062  H    0  0  0  0  0  0
   30.5150  105.2438   39.9211  H    0  0  0  0  0  0
   30.1559  102.9986   41.0421  H    0  0  0  0  0  0
   28.5741  104.8035   42.9709  H    0  0  0  0  0  0
   30.9147  103.1105   43.7758  H    0  0  0  0  0  0
   30.8576  106.2900   43.6204  H    0  0  0  0  0  0
   32.6137  105.6909   45.1358  H    0  0  0  0  0  0
   33.0887  104.3520   44.2019  H    0  0  0  0  0  0
   28.7431  110.9584   39.0721  H    0  0  0  0  0  0
   28.8231  108.5624   38.1028  H    0  0  0  0  0  0
   27.3188  107.8160   40.7429  H    0  0  0  0  0  0
   30.1383  107.2945   39.5652  H    0  0  0  0  0  0
   29.5359  108.9135   42.1707  H    0  0  0  0  0  0
   31.8790  109.4586   42.1420  H    0  0  0  0  0  0
   31.7477  107.7525   42.2873  H    0  0  0  0  0  0
   24.6943  114.5488   41.8123  H    0  0  0  0  0  0
   25.2203  113.6514   39.8130  H    0  0  0  0  0  0
   25.2042  110.8803   41.0966  H    0  0  0  0  0  0
   27.6077  112.4604   40.2590  H    0  0  0  0  0  0
   26.5524  111.7126   42.9652  H    0  0  0  0  0  0
   28.3994  112.6830   43.8905  H    0  0  0  0  0  0
   28.9922  111.4040   42.7651  H    0  0  0  0  0  0
   21.8332  113.7158   47.2589  H    0  0  0  0  0  0
   20.9515  113.7563   45.0871  H    0  0  0  0  0  0
   22.8315  111.3922   44.3859  H    0  0  0  0  0  0
   23.0087  114.2948   43.2927  H    0  0  0  0  0  0
   24.9318  113.1995   45.3304  H    0  0  0  0  0  0
   25.9881  115.0166   44.0400  H    0  0  0  0  0  0
   25.7268  115.5446   45.6473  H    0  0  0  0  0  0
  1  2  1  0  0  0
  1 46  1  0  0  0
  1 50  1  0  0  0
  1101  1  0  0  0
  2  3  1  0  0  0
  2 43  1  0  0  0
  2102  1  0  0  0
  3  4  1  0  0  0
  3 44  1  0  0  0
  3103  1  0  0  0
  4  5  1  0  0  0
  4 45  1  0  0  0
  4104  1  0  0  0
  5  6  1  0  0  0
  5 46  1  0  0  0
  5105  1  0  0  0
  6 47  1  0  0  0
  6106  1  0  0  0
  6107  1  0  0  0
  7  8  1  0  0  0
  7 51  1  0  0  0
  7 55  1  0  0  0
  7108  1  0  0  0
  8  9  1  0  0  0
  8 48  1  0  0  0
  8109  1  0  0  0
  9 10  1  0  0  0
  9 49  1  0  0  0
  9110  1  0  0  0
 10 11  1  0  0  0
 10 50  1  0  0  0
 10111  1  0  0  0
 11 12  1  0  0  0
 11 51  1  0  0  0
 11112  1  0  0  0
 12 52  1  0  0  0
 12 78  1  0  0  0
 12 79  1  0  0  0
 13 14  1  0  0  0
 13 56  1  0  0  0
 13 60  1  0  0  0
 13113  1  0  0  0
 14 15  1  0  0  0
 14 53  1  0  0  0
 14114  1  0  0  0
 15 16  1  0  0  0
 15 54  1  0  0  0
 15115  1  0  0  0
 16 17  1  0  0  0
 16 55  1  0  0  0
 16116  1  0  0  0
 17 18  1  0  0  0
 17 56  1  0  0  0
 17117  1  0  0  0
 18 57  1  0  0  0
 18118  1  0  0  0
 18119  1  0  0  0
 19 20  1  0  0  0
 19 61  1  0  0  0
 19 65  1  0  0  0
 19120  1  0  0  0
 20 21  1  0  0  0
 20 58  1  0  0  0
 20121  1  0  0  0
 21 22  1  0  0  0
 21 59  1  0  0  0
 21122  1  0  0  0
 22 23  1  0  0  0
 22 60  1  0  0  0
 22123  1  0  0  0
 23 24  1  0  0  0
 23 61  1  0  0  0
 23124  1  0  0  0
 24 62  1  0  0  0
 24125  1  0  0  0
 24126  1  0  0  0
 25 26  1  0  0  0
 25 66  1  0  0  0
 25 70  1  0  0  0
 25127  1  0  0  0
 26 27  1  0  0  0
 26 63  1  0  0  0
 26128  1  0  0  0
 27 28  1  0  0  0
 27 64  1  0  0  0
 27129  1  0  0  0
 28 29  1  0  0  0
 28 65  1  0  0  0
 28130  1  0  0  0
 29 30  1  0  0  0
 29 66  1  0  0  0
 29131  1  0  0  0
 30 67  1  0  0  0
 30132  1  0  0  0
 30133  1  0  0  0
 31 32  1  0  0  0
 31 71  1  0  0  0
 31 75  1  0  0  0
 31134  1  0  0  0
 32 33  1  0  0  0
 32 68  1  0  0  0
 32135  1  0  0  0
 33 34  1  0  0  0
 33 69  1  0  0  0
 33136  1  0  0  0
 34 35  1  0  0  0
 34 70  1  0  0  0
 34137  1  0  0  0
 35 36  1  0  0  0
 35 71  1  0  0  0
 35138  1  0  0  0
 36 72  1  0  0  0
 36139  1  0  0  0
 36140  1  0  0  0
 37 38  1  0  0  0
 37 45  1  0  0  0
 37 76  1  0  0  0
 37141  1  0  0  0
 38 39  1  0  0  0
 38 73  1  0  0  0
 38142  1  0  0  0
 39 40  1  0  0  0
 39 74  1  0  0  0
 39143  1  0  0  0
 40 41  1  0  0  0
 40 75  1  0  0  0
 40144  1  0  0  0
 41 42  1  0  0  0
 41 76  1  0  0  0
 41145  1  0  0  0
 42 77  1  0  0  0
 42146  1  0  0  0
 42147  1  0  0  0
 43 80  1  0  0  0
 44 81  1  0  0  0
 47 82  1  0  0  0
 48 83  1  0  0  0
 49 84  1  0  0  0
 52 85  1  0  0  0
 53 86  1  0  0  0
 54 87  1  0  0  0
 57 88  1  0  0  0
 58 89  1  0  0  0
 59 90  1  0  0  0
 62 91  1  0  0  0
 63 92  1  0  0  0
 64 93  1  0  0  0
 67 94  1  0  0  0
 68 95  1  0  0  0
 69 96  1  0  0  0
 72 97  1  0  0  0
 73 98  1  0  0  0
 74 99  1  0  0  0
 77100  1  0  0  0
M  END
> <s_m_entry_id>
15

> <s_m_Source_Path>
/home/emilio/Dropbox/sims/SAMPL9/work/receptor

> <s_m_Source_File>
bCD.mol2

> <i_m_Source_File_Index>
1

$$$$

