@<TRIPOS>MOLECULE
LIG
147 154
SMALL
USER_CHARGES
@<TRIPOS>ATOM
      1 C1         21.1961  111.8987   50.9295 aa             2 LIG     0.429587
      2 C2         19.6987  111.3976   50.7516 ab             1 LIG     0.201964
      3 C3         19.1392  111.9008   49.4335 ad             2 LIG     0.216381
      4 C4         19.2651  113.4666   49.2958 ae             1 LIG     0.192567
      5 C5         20.6913  113.9271   49.6465 af             1 LIG     0.192567
      6 C6         20.6720  115.5129   49.7671 ah             0 LIG     0.180165
      7 C7         24.3333  108.0964   48.5895 ai             2 LIG     0.429587
      8 C8         22.7817  107.8394   48.6331 aj             1 LIG     0.201964
      9 C9         22.1832  109.2030   48.6914 ak             2 LIG     0.216381
     10 C10        22.5312  110.0730   49.9426 an             1 LIG     0.192567
     11 C11        24.0846  110.1573   50.0572 ao             1 LIG     0.192567
     12 C12        24.5747  110.7026   51.4615 ap             0 LIG     0.180165
     13 C13        27.1656  108.1328   44.0702 aq             2 LIG     0.429587
     14 C14        26.3221  106.9103   44.4319 av             1 LIG     0.201964
     15 C15        25.2053  107.3868   45.3938 aw             2 LIG     0.216381
     16 C16        25.7866  108.0886   46.6813 ax             1 LIG     0.192567
     17 C17        26.7079  109.3037   46.1800 ay             1 LIG     0.192567
     18 C18        27.4597  109.8514   47.3719 az             0 LIG     0.180165
     19 C19        26.1189  110.9886   39.6277 bb             2 LIG     0.429587
     20 C20        26.1048  109.3733   39.5586 bc             1 LIG     0.201964
     21 C21        25.8415  108.8407   41.0041 bd             2 LIG     0.216381
     22 C22        26.8059  109.4809   42.0531 bf             1 LIG     0.192567
     23 C23        26.7440  111.0215   42.0173 bg             1 LIG     0.192567
     24 C24        27.5971  111.8271   43.0300 bh             0 LIG     0.180165
     25 C25        22.0047  114.2151   38.7101 bj             2 LIG     0.429587
     26 C26        21.9205  112.9328   37.8404 bk             1 LIG     0.201964
     27 C27        22.8419  111.7882   38.6034 bl             2 LIG     0.216381
     28 C28        24.2636  112.2754   39.0189 bm             1 LIG     0.192567
     29 C29        24.1465  113.7436   39.6652 bn             1 LIG     0.192567
     30 C30        25.5798  114.4009   39.6907 bo             0 LIG     0.180165
     31 C31        18.0095  115.0668   42.2680 bp             2 LIG     0.429587
     32 C32        17.8763  113.7496   41.4000 bq             1 LIG     0.201964
     33 C33        19.2677  113.2581   40.8718 bs             2 LIG     0.216381
     34 C34        20.0693  114.4991   40.2232 bt             1 LIG     0.192567
     35 C35        20.1233  115.6744   41.2297 bu             1 LIG     0.192567
     36 C36        20.6968  116.9154   40.6317 bv             0 LIG     0.180165
     37 C37        17.7576  114.6949   47.7386 bw             1 LIG     0.429587
     38 C38        16.6671  114.0835   46.8329 bx             1 LIG     0.201964
     39 C39        17.2973  113.7651   45.4446 by             2 LIG     0.216381
     40 C40        17.9229  115.1097   44.7944 bz             1 LIG     0.192567
     41 C41        18.8897  115.8405   45.8147 cb             1 LIG     0.192567
     42 C42        19.3374  117.2640   45.4401 ci             0 LIG     0.180165
     43 O1         19.6612  109.9159   50.8490 cj             0 LIG     -0.741075
     44 O2         17.8058  111.5551   49.1735 ck             0 LIG     -0.741075
     45 O3         18.8592  113.7666   47.9146 cm             0 LIG     -0.544165
     46 O4         21.2073  113.2990   50.9146 cn             0 LIG     -0.544165
     47 O5         21.9653  116.0370   50.1212 ct             0 LIG     -0.741075
     48 O6         22.2257  107.1220   47.5251 cw             0 LIG     -0.741075
     49 O7         20.7755  109.0095   48.6047 da             0 LIG     -0.741075
     50 O8         21.9716  111.3971   49.8373 db             0 LIG     -0.544165
     51 O9         24.7901  108.9092   49.7515 dc             0 LIG     -0.544165
     52 O10        24.0904  109.8336   52.4963 dd             0 LIG     -0.741075
     53 O11        25.7622  106.2453   43.2950 de             0 LIG     -0.741075
     54 O12        24.2894  106.3291   45.8285 df             0 LIG     -0.741075
     55 O13        24.6241  108.7224   47.3146 dg             0 LIG     -0.544165
     56 O14        27.6807  108.7909   45.2638 dh             0 LIG     -0.544165
     57 O15        28.1656  111.0013   46.8809 di             0 LIG     -0.741075
     58 O16        24.9762  108.8972   38.6755 dj             0 LIG     -0.741075
     59 O17        26.0410  107.4158   41.0145 dk             0 LIG     -0.741075
     60 O18        26.3765  109.0773   43.3417 dl             0 LIG     -0.544165
     61 O19        26.9947  111.4845   40.6692 dm             0 LIG     -0.544165
     62 O20        27.4292  113.2602   42.8094 dn             0 LIG     -0.741075
     63 O21        20.5504  112.5310   37.7362 do             0 LIG     -0.741075
     64 O22        22.9787  110.6067   37.8407 dp             0 LIG     -0.741075
     65 O23        24.8523  111.3731   39.9512 dq             0 LIG     -0.544165
     66 O24        23.3046  114.6182   39.0160 dr             0 LIG     -0.544165
     67 O25        25.4709  115.7625   40.0438 ds             0 LIG     -0.741075
     68 O26        17.0818  112.7171   42.0911 dt             0 LIG     -0.741075
     69 O27        19.0982  112.1577   39.9357 dv             0 LIG     -0.741075
     70 O28        21.3821  114.0346   39.9558 dw             0 LIG     -0.544165
     71 O29        18.7461  116.0433   41.6224 dx             0 LIG     -0.544165
     72 O30        20.0254  117.2837   39.4136 dz             0 LIG     -0.741075
     73 O31        16.2395  112.8172   47.3153 ea             0 LIG     -0.741075
     74 O32        16.2327  113.3223   44.5568 eb             0 LIG     -0.741075
     75 O33        18.6166  114.7334   43.5334 ec             0 LIG     -0.544165
     76 O34        18.3316  115.9394   47.1847 ed             0 LIG     -0.544165
     77 O35        18.2045  118.1212   45.0221 ee             0 LIG     -0.741075
     78 H1         24.2634  111.7530   51.5970 ef             0 LIG     0.065605
     79 H2         25.7196  110.7155   51.5498 eg             0 LIG     0.065605
     80 H3         19.9806  109.5808   49.9803 eh             0 LIG     0.491666
     81 H4         17.6573  110.5691   49.2310 ei             0 LIG     0.491666
     82 H5         21.9604  116.0785   51.1446 ej             0 LIG     0.491666
     83 H6         22.9737  106.8933   46.8207 ek             0 LIG     0.491666
     84 H7         20.6978  108.1411   48.1113 el             0 LIG     0.491666
     85 H8         24.4058  108.9134   52.2631 em             0 LIG     0.491666
     86 H9         25.8622  107.0333   42.6575 en             0 LIG     0.491666
     87 H10        24.6499  105.4302   45.6181 eo             0 LIG     0.491666
     88 H11        29.1060  110.7212   46.7291 eq             0 LIG     0.491666
     89 H12        24.3435  109.6656   38.5944 es             0 LIG     0.491666
     90 H13        25.8597  107.0904   40.0719 et             0 LIG     0.491666
     91 H14        27.7469  113.4486   41.8701 ev             0 LIG     0.491666
     92 H15        20.1331  112.3893   38.6539 ew             0 LIG     0.491666
     93 H16        23.1005  110.8587   36.8783 ex             0 LIG     0.491666
     94 H17        24.4956  115.9327   39.9853 ey             0 LIG     0.491666
     95 H18        16.9486  113.0311   43.0264 ez             0 LIG     0.491666
     96 H19        19.3527  111.3251   40.4060 fa             0 LIG     0.491666
     97 H20        19.0669  116.9058   39.5177 fb             0 LIG     0.491666
     98 H21        17.0074  112.4329   47.8253 fc             0 LIG     0.491666
     99 H22        15.4243  113.5656   45.0609 fd             0 LIG     0.491666
    100 H23        18.6192  118.7379   44.3604 ff             0 LIG     0.491666
    101 H24        21.5653  111.5454   51.9406 fg             0 LIG     0.064779
    102 H25        19.1964  111.7520   51.6406 fh             0 LIG     0.061814
    103 H26        19.6769  111.4224   48.6606 fi             0 LIG     0.054082
    104 H27        18.6271  114.0876   49.9615 fj             0 LIG     0.055721
    105 H28        21.4460  113.6248   48.8224 fk             0 LIG     0.055721
    106 H29        20.3782  115.8905   48.8433 fl             0 LIG     0.065605
    107 H30        19.9287  115.8477   50.5204 fm             0 LIG     0.065605
    108 H31        24.7515  107.0461   48.6255 fn             0 LIG     0.064779
    109 H32        22.6838  107.2194   49.5852 fo             0 LIG     0.061814
    110 H33        22.4947  109.7782   47.8594 fp             0 LIG     0.054082
    111 H34        22.0803  109.6035   50.8219 fq             0 LIG     0.055721
    112 H35        24.3318  110.8915   49.2794 fs             0 LIG     0.055721
    113 H36        27.9789  107.7843   43.4713 ft             0 LIG     0.064779
    114 H37        26.9890  106.2324   45.0525 fu             0 LIG     0.061814
    115 H38        24.6377  108.1342   44.8264 fv             0 LIG     0.054082
    116 H39        26.3109  107.3724   47.3566 fw             0 LIG     0.055721
    117 H40        26.1334  110.0359   45.7431 fx             0 LIG     0.055721
    118 H41        28.2683  109.1564   47.6493 fy             0 LIG     0.065605
    119 H42        26.7283  110.1536   48.1120 fz             0 LIG     0.065605
    120 H43        26.4418  111.3465   38.6467 gb             0 LIG     0.064779
    121 H44        27.0713  109.0172   39.1316 gc             0 LIG     0.061814
    122 H45        24.8154  109.2035   41.1766 gf             0 LIG     0.054082
    123 H46        27.8303  109.1388   41.7365 gg             0 LIG     0.055721
    124 H47        25.6983  111.2661   42.2136 gh             0 LIG     0.055721
    125 H48        27.2074  111.5866   44.0588 gi             0 LIG     0.065605
    126 H49        28.6717  111.5847   43.0170 gj             0 LIG     0.065605
    127 H50        21.5432  115.0399   38.2594 gk             0 LIG     0.064779
    128 H51        22.2915  113.0104   36.7835 gl             0 LIG     0.061814
    129 H52        22.3367  111.5450   39.4967 gm             0 LIG     0.054082
    130 H53        24.9584  112.4062   38.1972 gn             0 LIG     0.055721
    131 H54        23.7624  113.6101   40.7270 go             0 LIG     0.055721
    132 H55        26.1617  113.8596   40.3923 gp             0 LIG     0.065605
    133 H56        26.0112  114.2431   38.6451 gq             0 LIG     0.065605
    134 H57        17.0019  115.5246   42.4419 gr             0 LIG     0.064779
    135 H58        17.2129  114.0333   40.5723 gs             0 LIG     0.061814
    136 H59        19.8790  112.9944   41.8172 gt             0 LIG     0.054082
    137 H60        19.5871  114.8287   39.3325 gu             0 LIG     0.055721
    138 H61        20.5714  115.2517   42.1681 gv             0 LIG     0.055721
    139 H62        20.5661  117.7984   41.3338 gw             0 LIG     0.065605
    140 H63        21.7881  116.7360   40.3821 gx             0 LIG     0.065605
    141 H64        17.2948  114.8921   48.7117 gy             0 LIG     0.064779
    142 H65        15.8562  114.8137   46.6972 gz             0 LIG     0.061814
    143 H66        18.0331  112.9852   45.6765 hb             0 LIG     0.054082
    144 H67        17.0666  115.7522   44.5547 hd             0 LIG     0.055721
    145 H68        19.8070  115.2480   45.9188 hh             0 LIG     0.055721
    146 H69        20.0053  117.1547   44.5768 hi             0 LIG     0.065605
    147 H70        19.8326  117.8375   46.2335 hj             0 LIG     0.065605
@<TRIPOS>BOND
        1  1  2  1
        2  1  46  1
        3  1  50  1
        4  1  101  1
        5  2  3  1
        6  2  43  1
        7  2  102  1
        8  3  4  1
        9  3  44  1
        10  3  103  1
        11  4  5  1
        12  4  45  1
        13  4  104  1
        14  5  6  1
        15  5  46  1
        16  5  105  1
        17  6  47  1
        18  6  106  1
        19  6  107  1
        20  7  8  1
        21  7  51  1
        22  7  55  1
        23  7  108  1
        24  8  9  1
        25  8  48  1
        26  8  109  1
        27  9  10  1
        28  9  49  1
        29  9  110  1
        30  10  11  1
        31  10  50  1
        32  10  111  1
        33  11  12  1
        34  11  51  1
        35  11  112  1
        36  12  52  1
        37  12  78  1
        38  12  79  1
        39  13  14  1
        40  13  56  1
        41  13  60  1
        42  13  113  1
        43  14  15  1
        44  14  53  1
        45  14  114  1
        46  15  16  1
        47  15  54  1
        48  15  115  1
        49  16  17  1
        50  16  55  1
        51  16  116  1
        52  17  18  1
        53  17  56  1
        54  17  117  1
        55  18  57  1
        56  18  118  1
        57  18  119  1
        58  19  20  1
        59  19  61  1
        60  19  65  1
        61  19  120  1
        62  20  21  1
        63  20  58  1
        64  20  121  1
        65  21  22  1
        66  21  59  1
        67  21  122  1
        68  22  23  1
        69  22  60  1
        70  22  123  1
        71  23  24  1
        72  23  61  1
        73  23  124  1
        74  24  62  1
        75  24  125  1
        76  24  126  1
        77  25  26  1
        78  25  66  1
        79  25  70  1
        80  25  127  1
        81  26  27  1
        82  26  63  1
        83  26  128  1
        84  27  28  1
        85  27  64  1
        86  27  129  1
        87  28  29  1
        88  28  65  1
        89  28  130  1
        90  29  30  1
        91  29  66  1
        92  29  131  1
        93  30  67  1
        94  30  132  1
        95  30  133  1
        96  31  32  1
        97  31  71  1
        98  31  75  1
        99  31  134  1
        100  32  33  1
        101  32  68  1
        102  32  135  1
        103  33  34  1
        104  33  69  1
        105  33  136  1
        106  34  35  1
        107  34  70  1
        108  34  137  1
        109  35  36  1
        110  35  71  1
        111  35  138  1
        112  36  72  1
        113  36  139  1
        114  36  140  1
        115  37  38  1
        116  37  45  1
        117  37  76  1
        118  37  141  1
        119  38  39  1
        120  38  73  1
        121  38  142  1
        122  39  40  1
        123  39  74  1
        124  39  143  1
        125  40  41  1
        126  40  75  1
        127  40  144  1
        128  41  42  1
        129  41  76  1
        130  41  145  1
        131  42  77  1
        132  42  146  1
        133  42  147  1
        134  43  80  1
        135  44  81  1
        136  47  82  1
        137  48  83  1
        138  49  84  1
        139  52  85  1
        140  53  86  1
        141  54  87  1
        142  57  88  1
        143  58  89  1
        144  59  90  1
        145  62  91  1
        146  63  92  1
        147  64  93  1
        148  67  94  1
        149  68  95  1
        150  69  96  1
        151  72  97  1
        152  73  98  1
        153  74  99  1
        154  77  100  1
@<TRIPOS>SUBSTRUCTURE
       1 LIG             1 RESIDUE    0 **** ROOT      0

