PMZ1assR
                    3D
 Schrodinger Suite 2019-4.
 41 43  0  0  1  0            999 V2000
   32.9072  112.3458   47.6830  C    0  0  0  0  0  0
   28.1128  107.8639   46.3277  C    0  0  0  0  0  0
   33.1901  112.6826   46.3298  C    0  0  0  0  0  0
   28.3017  107.8033   44.9504  C    0  0  0  0  0  0
   31.6093  111.8243   47.9930  C    0  0  0  0  0  0
   28.3815  108.9644   47.0904  C    0  0  0  0  0  0
   32.2133  112.5111   45.3659  C    0  0  0  0  0  0
   28.9310  108.8653   44.3768  C    0  0  0  0  0  0
   30.6410  111.5959   46.9504  C    0  0  0  0  0  0
   28.9453  110.0662   46.4724  C    0  0  0  0  0  0
   30.9727  111.9339   45.6249  C    0  0  0  0  0  0
   29.2621  109.9766   45.1235  C    0  0  0  0  0  0
   24.5404  114.1824   49.0088  C    0  0  0  0  0  0
   24.8716  112.6234   47.0721  C    0  0  0  0  0  0
   27.8403  113.2124   47.2232  C    0  0  0  0  0  0
   28.4157  111.9602   47.9796  C    0  0  0  0  0  0
   26.7506  113.9961   48.0424  C    0  0  0  0  0  0
   29.3358  111.1599   47.2011  N    0  0  0  0  0  0
   25.5540  113.2421   48.3594  N    0  3  0  0  0  0
   29.9888  111.3746   44.2388  S    0  0  0  0  0  0
   33.6570  112.5342   48.4549  H    0  0  0  0  0  0
   27.7540  106.9395   46.7783  H    0  0  0  0  0  0
   34.1453  113.0657   46.1456  H    0  0  0  0  0  0
   27.7941  106.9719   44.4297  H    0  0  0  0  0  0
   31.3302  111.5206   49.0014  H    0  0  0  0  0  0
   28.1013  109.0168   48.1296  H    0  0  0  0  0  0
   32.4471  112.8818   44.4043  H    0  0  0  0  0  0
   29.0321  108.9372   43.3327  H    0  0  0  0  0  0
   24.9447  114.6920   49.8712  H    0  0  0  0  0  0
   23.7220  113.4956   49.2932  H    0  0  0  0  0  0
   24.0820  114.8908   48.2687  H    0  0  0  0  0  0
   24.8565  113.3699   46.2556  H    0  0  0  0  0  0
   23.8643  112.3724   47.3781  H    0  0  0  0  0  0
   25.4976  111.7787   46.7877  H    0  0  0  0  0  0
   28.7355  113.8262   46.9915  H    0  0  0  0  0  0
   27.4661  112.8954   46.3299  H    0  0  0  0  0  0
   29.0575  112.3335   48.8092  H    0  0  0  0  0  0
   27.7075  111.1797   48.4075  H    0  0  0  0  0  0
   27.1087  114.4471   48.9889  H    0  0  0  0  0  0
   26.4756  114.8939   47.4544  H    0  0  0  0  0  0
   25.8300  112.4554   49.0683  H    0  0  0  0  0  0
  1  3  2  0  0  0
  1  5  1  0  0  0
  1 21  1  0  0  0
  2  4  2  0  0  0
  2  6  1  0  0  0
  2 22  1  0  0  0
  3  7  1  0  0  0
  3 23  1  0  0  0
  4  8  1  0  0  0
  4 24  1  0  0  0
  5  9  2  0  0  0
  5 25  1  0  0  0
  6 10  2  0  0  0
  6 26  1  0  0  0
  7 11  2  0  0  0
  7 27  1  0  0  0
  8 12  2  0  0  0
  8 28  1  0  0  0
  9 11  1  0  0  0
  9 18  1  0  0  0
 10 12  1  0  0  0
 10 18  1  0  0  0
 11 20  1  0  0  0
 12 20  1  0  0  0
 13 19  1  0  0  0
 13 29  1  0  0  0
 13 30  1  0  0  0
 13 31  1  0  0  0
 14 19  1  0  0  0
 14 32  1  0  0  0
 14 33  1  0  0  0
 14 34  1  0  0  0
 15 16  1  0  0  0
 15 17  1  0  0  0
 15 35  1  0  0  0
 15 36  1  0  0  0
 16 18  1  0  0  0
 16 37  1  0  0  0
 16 38  1  0  0  0
 17 19  1  0  0  0
 17 39  1  0  0  0
 17 40  1  0  0  0
 19 41  1  0  0  0
M  CHG  1  19   1
M  END
> <s_m_entry_id>
180

> <s_m_Source_Path>
/home/emilio/Dropbox/SAMPL9-eglab/mCD/ligsdfs

> <s_m_Source_File>
PMZ1assR.sdf

> <i_m_Source_File_Index>
1

> <r_epik_Ionization_Penalty>
  0.0034

> <r_epik_State_Penalty>
  0.0024

> <i_epik_Tot_Q>
1

> <s_m_job_name>
ligprep_4

> <i_f3d_flags>
0

$$$$

