@<TRIPOS>MOLECULE
LIG
41 43
SMALL
USER_CHARGES
@<TRIPOS>ATOM
      1 C1         32.8177  112.5935   47.6261 AA             0 LIG     -0.148984
      2 C2         33.2042  112.7522   46.2838 AB             0 LIG     -0.148984
      3 C3         31.5435  112.0810   47.9374 AD             0 LIG     -0.216162
      4 C4         32.3180  112.3843   45.2555 AE             0 LIG     -0.191448
      5 C5         28.9277  108.8829   44.3164 AF             0 LIG     -0.191448
      6 C6         28.3307  107.7718   44.9387 AH             0 LIG     -0.201273
      7 C7         28.4374  108.9305   47.0805 AI             0 LIG     -0.282378
      8 C8         30.6321  111.7235   46.9135 AJ             0 LIG     0.090825
      9 C9         29.0315  110.0604   46.4684 AK             0 LIG     0.090825
     10 C10        31.0467  111.8619   45.5640 AN             0 LIG     0.113170
     11 C11        29.2790  110.0189   45.0723 AO             0 LIG     0.113170
     12 C12        28.0861  107.7981   46.3224 AP             0 LIG     0.139586
     13 C13        24.5632  114.7125   48.8971 AQ             0 LIG     -0.327670
     14 C14        25.0513  113.1806   47.0435 AV             0 LIG     -0.327670
     15 C15        27.7253  113.0839   47.5247 AW             0 LIG     -0.018552
     16 C16        28.3288  111.7891   48.1012 AX             0 LIG     0.030051
     17 C17        26.8710  113.8356   48.5628 AY             0 LIG     0.155353
     18 N1         29.3534  111.2111   47.2222 AZ             0 LIG     -0.186524
     19 N2         25.4097  113.5867   48.4250 BB             0 LIG     0.134459
     20 S1         29.9979  111.3892   44.2230 BC             0 LIG     -0.184949
     21 CL1        27.3388  106.4505   47.0951 BD             0 LIG     -0.163674
     22 H1         33.5063  112.8519   48.4184 BF             0 LIG     0.167367
     23 H2         34.1846  113.1378   46.0415 BG             0 LIG     0.167367
     24 H3         31.2962  111.9363   48.9774 BH             0 LIG     0.144463
     25 H4         32.6212  112.4866   44.2237 BJ             0 LIG     0.182657
     26 H5         29.1213  108.8637   43.2535 BK             0 LIG     0.182657
     27 H6         28.0661  106.8998   44.3575 BL             0 LIG     0.185066
     28 H7         28.2565  108.9016   48.1425 BM             0 LIG     0.159917
     29 H8         24.8018  115.6392   48.3722 BN             0 LIG     0.163775
     30 H9         24.6831  114.8879   49.9666 BO             0 LIG     0.163775
     31 H10        23.5053  114.5002   48.7344 BP             0 LIG     0.163775
     32 H11        25.2494  113.9841   46.3313 BQ             0 LIG     0.163775
     33 H12        23.9932  112.9219   46.9712 BS             0 LIG     0.163775
     34 H13        25.6207  112.3045   46.7284 BT             0 LIG     0.163775
     35 H14        28.5383  113.7173   47.1652 BU             0 LIG     0.042423
     36 H15        27.1152  112.8390   46.6556 BV             0 LIG     0.042423
     37 H16        28.7336  112.0293   49.0829 BW             0 LIG     0.092460
     38 H17        27.5512  111.0505   48.2953 BX             0 LIG     0.092460
     39 H18        27.1969  113.5725   49.5715 BY             0 LIG     0.021392
     40 H19        27.0582  114.9054   48.4496 BZ             0 LIG     0.021392
     41 H20        25.1935  112.7945   49.0171 CB             0 LIG     0.237587
@<TRIPOS>BOND
        1  1  2  2
        2  1  3  1
        3  1  22  1
        4  2  4  1
        5  2  23  1
        6  3  8  2
        7  3  24  1
        8  4  10  2
        9  4  25  1
        10  5  6  1
        11  5  11  2
        12  5  26  1
        13  6  12  2
        14  6  27  1
        15  7  9  2
        16  7  12  1
        17  7  28  1
        18  8  10  1
        19  8  18  1
        20  9  11  1
        21  9  18  1
        22  10  20  1
        23  11  20  1
        24  12  21  1
        25  13  19  1
        26  13  29  1
        27  13  30  1
        28  13  31  1
        29  14  19  1
        30  14  32  1
        31  14  33  1
        32  14  34  1
        33  15  16  1
        34  15  17  1
        35  15  35  1
        36  15  36  1
        37  16  18  1
        38  16  37  1
        39  16  38  1
        40  17  19  1
        41  17  39  1
        42  17  40  1
        43  19  41  1
@<TRIPOS>SUBSTRUCTURE
       1 LIG             1 RESIDUE    0 **** ROOT      0

