PMT1assR
                    3D
 Structure written by MMmdl.
 41 43  0  0  1  0            999 V2000
   32.9267  112.2775   47.6582 C   0  0  0  0  0  0
   28.0814  107.7915   46.3324 C   0  0  0  0  0  0
   33.3290  112.4400   46.3142 C   0  0  0  0  0  0
   28.2916  107.7780   44.9376 C   0  0  0  0  0  0
   31.5965  111.9457   47.9758 C   0  0  0  0  0  0
   28.4111  108.9305   47.0966 C   0  0  0  0  0  0
   32.4010  112.2407   45.2727 C   0  0  0  0  0  0
   28.8670  108.8909   44.2991 C   0  0  0  0  0  0
   30.6604  111.7161   46.9333 C   0  0  0  0  0  0
   28.9692  110.0565   46.4586 C   0  0  0  0  0  0
   31.0887  111.8464   45.5839 C   0  0  0  0  0  0
   29.2253  110.0171   45.0637 C   0  0  0  0  0  0
   28.8473  114.3470   47.4789 C   0  0  0  0  0  0
   25.3016  113.0474   48.0820 C   0  0  0  0  0  0
   26.2806  115.2117   48.3184 C   0  0  0  0  0  0
   28.4740  111.9562   48.0484 C   0  0  0  0  0  0
   27.7463  113.2748   47.5894 C   0  0  1  0  0  0
   29.3631  111.2079   47.1645 N   0  0  0  0  0  0
   26.5654  113.7570   48.3975 N   0  3  0  0  0  0
   29.9933  111.3988   44.2707 S   0  0  0  0  0  0
   33.6522  112.4051   48.4513 H   0  0  0  0  0  0
   27.6861  106.9189   46.8311 H   0  0  0  0  0  0
   34.3529  112.6903   46.0766 H   0  0  0  0  0  0
   28.0386  106.9001   44.3579 H   0  0  0  0  0  0
   31.3327  111.8001   49.0095 H   0  0  0  0  0  0
   28.2938  108.8988   48.1686 H   0  0  0  0  0  0
   32.7015  112.3587   44.2359 H   0  0  0  0  0  0
   29.0610  108.8846   43.2296 H   0  0  0  0  0  0
   29.7039  113.9732   46.9246 H   0  0  0  0  0  0
   29.2088  114.6219   48.4697 H   0  0  0  0  0  0
   28.5330  115.2556   46.9633 H   0  0  0  0  0  0
   25.1430  112.7947   47.0313 H   0  0  0  0  0  0
   24.4037  113.5310   48.4986 H   0  0  0  0  0  0
   25.3029  112.0917   48.5410 H   0  0  0  0  0  0
   26.0557  115.5132   47.2927 H   0  0  0  0  0  0
   27.1025  115.8033   48.6955 H   0  0  0  0  0  0
   25.4129  115.4735   48.9374 H   0  0  0  0  0  0
   28.9715  112.1486   49.0016 H   0  0  0  0  0  0
   27.7016  111.2053   48.2718 H   0  0  0  0  0  0
   27.3842  113.1254   46.5719 H   0  0  0  0  0  0
   26.8071  113.5403   49.3606 H   0  0  0  0  0  0
  1  3  2  0  0  0
  1  5  1  0  0  0
  1 21  1  0  0  0
  2  4  2  0  0  0
  2  6  1  0  0  0
  2 22  1  0  0  0
  3  7  1  0  0  0
  3 23  1  0  0  0
  4  8  1  0  0  0
  4 24  1  0  0  0
  5  9  2  0  0  0
  5 25  1  0  0  0
  6 10  2  0  0  0
  6 26  1  0  0  0
  7 11  2  0  0  0
  7 27  1  0  0  0
  8 12  2  0  0  0
  8 28  1  0  0  0
  9 11  1  0  0  0
  9 18  1  0  0  0
 10 12  1  0  0  0
 10 18  1  0  0  0
 11 20  1  0  0  0
 12 20  1  0  0  0
 13 17  1  0  0  0
 13 29  1  0  0  0
 13 30  1  0  0  0
 13 31  1  0  0  0
 14 19  1  0  0  0
 14 32  1  0  0  0
 14 33  1  0  0  0
 14 34  1  0  0  0
 15 19  1  0  0  0
 15 35  1  0  0  0
 15 36  1  0  0  0
 15 37  1  0  0  0
 16 17  1  0  0  0
 16 18  1  0  0  0
 16 38  1  0  0  0
 16 39  1  0  0  0
 17 19  1  0  0  0
 17 40  1  0  0  0
 19 41  1  0  0  0
M  CHG  1  19   1
M  END
> <s_m_entry_id>
582

> <s_m_entry_name>
PMT1assR.1

> <s_m_Source_Path>
/home/emilio/Dropbox/SAMPL9-eglab/mCD/ligsdfs

> <s_m_Source_File>
PMT1assR.sdf

> <i_m_Source_File_Index>
1

> <i_lp_mmshare_version>
47013

> <s_epik_input>
W2NIXTFbY0hdW2NIXVtjSF1jKGMxMilTYzNjKFtjSF1bY0hdW2NIXVtjSF0zKU4yW0NIMl1bQ0BIXShbQ0gzXSlOKFtDSDNdKVtDSDNd

> <s_epik_cmdline>
J2VwaWtfcHl0aG9uJywgJy1waHQnLCAnNC4wJywgJy1waCcsICc3LjQnLCAnLXRuJywgJzgnLCAnLW1hJywgJzIwMCcsICctaW1hZScsICc8aW5maWxlLm1hZT4nLCAnLW9tYWUnLCAnPG91dGZpbGUubWFlPic=

> <r_epik_Ionization_Penalty>
  0.0045

> <r_epik_Ionization_Penalty_Charging>
  0.0045

> <r_epik_Ionization_Penalty_Neutral>
  0.0000

> <r_epik_State_Penalty>
  0.0032

> <r_epik_Charging_Adjusted_Penalty>
0.00770832931686598

> <i_epik_Tot_Q>
1

> <i_epik_Tot_abs_Q>
1

> <s_lp_Force_Field>
OPLS3e

> <r_lp_Energy>
58.361695

> <b_lp_Chiralities_Consistent>
1

> <s_lp_Variant>
PMT-1

> <s_m_job_name>
ligprep_4

> <chiral flag>
1

> <version>
0

> <i_f3d_flags>
0

> <s_m_subgroup_title>
mCDq->ssR d_copy1

> <s_m_subgroupid>
mCDq->imported_structures_copy2

> <b_m_subgroup_collapsed>
0

$$$$
