@<TRIPOS>MOLECULE
LIG
41 43
SMALL
USER_CHARGES
@<TRIPOS>ATOM
      1 C1         32.9267  112.2775   47.6582 AA             0 LIG     -0.150100
      2 C2         28.0814  107.7915   46.3324 AB             0 LIG     -0.150100
      3 C3         33.3290  112.4400   46.3142 AD             0 LIG     -0.150100
      4 C4         28.2916  107.7780   44.9376 AE             0 LIG     -0.150100
      5 C5         31.5965  111.9457   47.9758 AF             0 LIG     -0.220762
      6 C6         28.4111  108.9305   47.0966 AH             0 LIG     -0.220762
      7 C7         32.4010  112.2407   45.2727 AI             0 LIG     -0.190531
      8 C8         28.8670  108.8909   44.2991 AJ             0 LIG     -0.190531
      9 C9         30.6604  111.7161   46.9333 AK             0 LIG     0.084657
     10 C10        28.9692  110.0565   46.4586 AN             0 LIG     0.084657
     11 C11        31.0887  111.8464   45.5839 AO             0 LIG     0.115853
     12 C12        29.2253  110.0171   45.0637 AP             0 LIG     0.115853
     13 C13        28.8473  114.3470   47.4789 AQ             0 LIG     -0.353988
     14 C14        25.3016  113.0474   48.0820 AV             0 LIG     -0.185375
     15 C15        26.2806  115.2117   48.3184 AW             0 LIG     -0.185375
     16 C16        28.4740  111.9562   48.0484 AX             0 LIG     0.002465
     17 C17        27.7463  113.2748   47.5894 AY             1 LIG     0.085935
     18 N1         29.3631  111.2079   47.1645 AZ             0 LIG     -0.190232
     19 N2         26.5654  113.7570   48.3975 BB             0 LIG     0.109280
     20 S1         29.9933  111.3988   44.2707 BC             0 LIG     -0.188456
     21 H1         33.6522  112.4051   48.4513 BD             0 LIG     0.166423
     22 H2         27.6861  106.9189   46.8311 BF             0 LIG     0.166423
     23 H3         34.3529  112.6903   46.0766 BG             0 LIG     0.166423
     24 H4         28.0386  106.9001   44.3579 BH             0 LIG     0.166423
     25 H5         31.3327  111.8001   49.0095 BJ             0 LIG     0.128375
     26 H6         28.2938  108.8988   48.1686 BK             0 LIG     0.128375
     27 H7         32.7015  112.3587   44.2359 BL             0 LIG     0.178440
     28 H8         29.0610  108.8846   43.2296 BM             0 LIG     0.178440
     29 H9         29.7039  113.9732   46.9246 BN             0 LIG     0.122803
     30 H10        29.2088  114.6219   48.4697 BO             0 LIG     0.122803
     31 H11        28.5330  115.2556   46.9633 BP             0 LIG     0.122803
     32 H12        25.1430  112.7947   47.0313 BQ             0 LIG     0.123915
     33 H13        24.4037  113.5310   48.4986 BS             0 LIG     0.123915
     34 H14        25.3029  112.0917   48.5410 BT             0 LIG     0.123915
     35 H15        26.0557  115.5132   47.2927 BU             0 LIG     0.123915
     36 H16        27.1025  115.8033   48.6955 BV             0 LIG     0.123915
     37 H17        25.4129  115.4735   48.9374 BW             0 LIG     0.123915
     38 H18        28.9715  112.1486   49.0016 BX             0 LIG     0.090289
     39 H19        27.7016  111.2053   48.2718 BY             0 LIG     0.090289
     40 H20        27.3842  113.1254   46.5719 BZ             0 LIG     0.141962
     41 H21        26.8071  113.5403   49.3606 CB             0 LIG     0.213953
@<TRIPOS>BOND
        1  1  3  2
        2  1  5  1
        3  1  21  1
        4  2  4  2
        5  2  6  1
        6  2  22  1
        7  3  7  1
        8  3  23  1
        9  4  8  1
        10  4  24  1
        11  5  9  2
        12  5  25  1
        13  6  10  2
        14  6  26  1
        15  7  11  2
        16  7  27  1
        17  8  12  2
        18  8  28  1
        19  9  11  1
        20  9  18  1
        21  10  12  1
        22  10  18  1
        23  11  20  1
        24  12  20  1
        25  13  17  1
        26  13  29  1
        27  13  30  1
        28  13  31  1
        29  14  19  1
        30  14  32  1
        31  14  33  1
        32  14  34  1
        33  15  19  1
        34  15  35  1
        35  15  36  1
        36  15  37  1
        37  16  17  1
        38  16  18  1
        39  16  38  1
        40  16  39  1
        41  17  19  1
        42  17  40  1
        43  19  41  1
@<TRIPOS>SUBSTRUCTURE
       1 LIG             1 RESIDUE    0 **** ROOT      0

