@<TRIPOS>MOLECULE
LIG
41 43
SMALL
USER_CHARGES
@<TRIPOS>ATOM
      1 C1         32.9072  112.3458   47.6830 PA             0 LIG     -0.151978
      2 C2         28.1128  107.8639   46.3277 PB             0 LIG     -0.151978
      3 C3         33.1901  112.6826   46.3298 PD             0 LIG     -0.151978
      4 C4         28.3017  107.8033   44.9504 PE             0 LIG     -0.151978
      5 C5         31.6093  111.8243   47.9930 PF             0 LIG     -0.221382
      6 C6         28.3815  108.9644   47.0904 PH             0 LIG     -0.221382
      7 C7         32.2133  112.5111   45.3659 PI             0 LIG     -0.192007
      8 C8         28.9310  108.8653   44.3768 PJ             0 LIG     -0.192007
      9 C9         30.6410  111.5959   46.9504 PK             0 LIG     0.086899
     10 C10        28.9453  110.0662   46.4724 PN             0 LIG     0.086899
     11 C11        30.9727  111.9339   45.6249 PO             0 LIG     0.115779
     12 C12        29.2621  109.9766   45.1235 PP             0 LIG     0.115779
     13 C13        24.5404  114.1824   49.0088 PQ             0 LIG     -0.319173
     14 C14        24.8716  112.6234   47.0721 PV             0 LIG     -0.319173
     15 C15        27.8403  113.2124   47.2232 PW             0 LIG     -0.018118
     16 C16        28.4157  111.9602   47.9796 PX             0 LIG     0.036275
     17 C17        26.7506  113.9961   48.0424 PY             0 LIG     0.012268
     18 N1         29.3358  111.1599   47.2011 PZ             0 LIG     -0.191498
     19 N2         25.5540  113.2421   48.3594 QB             0 LIG     0.153200
     20 S1         29.9888  111.3746   44.2388 QC             0 LIG     -0.201542
     21 H1         33.6570  112.5342   48.4549 QD             0 LIG     0.160898
     22 H2         27.7540  106.9395   46.7783 QF             0 LIG     0.160898
     23 H3         34.1453  113.0657   46.1456 QG             0 LIG     0.160898
     24 H4         27.7941  106.9719   44.4297 QH             0 LIG     0.160898
     25 H5         31.3302  111.5206   49.0014 QJ             0 LIG     0.134456
     26 H6         28.1013  109.0168   48.1296 QK             0 LIG     0.134456
     27 H7         32.4471  112.8818   44.4043 QL             0 LIG     0.174337
     28 H8         29.0321  108.9372   43.3327 QM             0 LIG     0.174337
     29 H9         24.9447  114.6920   49.8712 QN             0 LIG     0.158404
     30 H10        23.7220  113.4956   49.2932 QO             0 LIG     0.158404
     31 H11        24.0820  114.8908   48.2687 QP             0 LIG     0.158404
     32 H12        24.8565  113.3699   46.2556 QQ             0 LIG     0.158404
     33 H13        23.8643  112.3724   47.3781 QS             0 LIG     0.158404
     34 H14        25.4976  111.7787   46.7877 QT             0 LIG     0.158404
     35 H15        28.7355  113.8262   46.9915 QU             0 LIG     0.041463
     36 H16        27.4661  112.8954   46.3299 QV             0 LIG     0.041463
     37 H17        29.0575  112.3335   48.8092 QW             0 LIG     0.085391
     38 H18        27.7075  111.1797   48.4075 QX             0 LIG     0.085391
     39 H19        27.1087  114.4471   48.9889 QY             0 LIG     0.073022
     40 H20        26.4756  114.8939   47.4544 QZ             0 LIG     0.073022
     41 H21        25.8300  112.4554   49.0683 RB             0 LIG     0.265740
@<TRIPOS>BOND
        1  1  3  2
        2  1  5  1
        3  1  21  1
        4  2  4  2
        5  2  6  1
        6  2  22  1
        7  3  7  1
        8  3  23  1
        9  4  8  1
        10  4  24  1
        11  5  9  2
        12  5  25  1
        13  6  10  2
        14  6  26  1
        15  7  11  2
        16  7  27  1
        17  8  12  2
        18  8  28  1
        19  9  11  1
        20  9  18  1
        21  10  12  1
        22  10  18  1
        23  11  20  1
        24  12  20  1
        25  13  19  1
        26  13  29  1
        27  13  30  1
        28  13  31  1
        29  14  19  1
        30  14  32  1
        31  14  33  1
        32  14  34  1
        33  15  16  1
        34  15  17  1
        35  15  35  1
        36  15  36  1
        37  16  18  1
        38  16  37  1
        39  16  38  1
        40  17  19  1
        41  17  39  1
        42  17  40  1
        43  19  41  1
@<TRIPOS>SUBSTRUCTURE
       1 LIG             1 RESIDUE    0 **** ROOT      0

