@<TRIPOS>MOLECULE
LIG
52 55
SMALL
USER_CHARGES
@<TRIPOS>ATOM
      1 C1         32.6993  112.9007   47.6007 AA             0 LIG     -0.151741
      2 C2         33.0890  113.0315   46.2571 AB             0 LIG     -0.151741
      3 C3         31.4639  112.3062   47.9232 AD             0 LIG     -0.220252
      4 C4         32.2406  112.5637   45.2380 AE             0 LIG     -0.194616
      5 C5         28.8846  108.9001   44.3106 AF             0 LIG     -0.194616
      6 C6         28.3059  107.7789   44.9307 AH             0 LIG     -0.194616
      7 C7         28.4270  108.9282   47.0774 AI             0 LIG     -0.276550
      8 C8         30.5953  111.8275   46.9089 AJ             0 LIG     0.084603
      9 C9         28.9944  110.0746   46.4674 AK             0 LIG     0.084603
     10 C10        31.0081  111.9604   45.5577 AN             0 LIG     0.112404
     11 C11        29.2372  110.0335   45.0696 AO             0 LIG     0.112404
     12 C12        28.0841  107.7923   46.3197 AP             0 LIG     0.163041
     13 C13        25.1326  110.4692   46.7962 AQ             0 LIG     -0.029878
     14 C14        24.0446  111.2995   46.1360 AV             0 LIG     -0.034345
     15 C15        25.4723  111.0354   48.1809 AW             0 LIG     -0.054555
     16 C16        24.4412  112.7857   46.0853 AX             0 LIG     0.011138
     17 C17        25.9088  112.5260   48.0955 AY             1 LIG     0.149935
     18 C18        24.9876  114.7743   47.4576 AZ             0 LIG     -0.244054
     19 C19        27.8211  104.9173   46.2035 BB             0 LIG     -0.160589
     20 C20        27.3080  112.7584   47.4376 BC             0 LIG     -0.033239
     21 C21        28.4301  111.9059   48.1009 BD             0 LIG     0.039575
     22 N1         29.3572  111.2183   47.2188 BF             0 LIG     -0.187004
     23 N2         24.8095  113.2974   47.4412 BG             1 LIG     -0.070769
     24 S1         29.9962  111.3876   44.2291 BH             0 LIG     -0.197900
     25 S2         27.3753  106.4020   47.1471 BJ             0 LIG     -0.258446
     26 H1         33.3609  113.2386   48.3861 BK             0 LIG     0.161610
     27 H2         34.0445  113.4715   46.0062 BL             0 LIG     0.161610
     28 H3         31.2293  112.1945   48.9684 BM             0 LIG     0.136076
     29 H4         32.5441  112.6503   44.2050 BN             0 LIG     0.176324
     30 H5         29.0761  108.8868   43.2476 BO             0 LIG     0.176324
     31 H6         28.0501  106.9169   44.3329 BP             0 LIG     0.176324
     32 H7         28.2799  108.8696   48.1436 BQ             0 LIG     0.140791
     33 H8         24.8500  109.4150   46.8889 BS             0 LIG     0.046381
     34 H9         25.9963  110.5054   46.1388 BT             0 LIG     0.046381
     35 H10        23.8744  110.9163   45.1274 BU             0 LIG     0.049941
     36 H11        23.1219  111.1570   46.6905 BV             0 LIG     0.049941
     37 H12        24.6024  110.9379   48.8302 BW             0 LIG     0.046927
     38 H13        26.1738  110.3762   48.6721 BX             0 LIG     0.046927
     39 H14        25.2632  112.9363   45.3886 BY             0 LIG     0.081886
     40 H15        23.5960  113.3467   45.6924 BZ             0 LIG     0.081886
     41 H16        25.9729  112.8844   49.1231 CB             0 LIG     0.038290
     42 H17        25.7757  115.0867   46.7766 CI             0 LIG     0.142123
     43 H18        25.2377  115.1219   48.4598 CJ             0 LIG     0.142123
     44 H19        24.0673  115.2755   47.1553 CK             0 LIG     0.142123
     45 H20        27.5144  104.0241   46.7482 CM             0 LIG     0.110774
     46 H21        28.8995  104.8702   46.0497 CN             0 LIG     0.110774
     47 H22        27.3249  104.9074   45.2334 CT             0 LIG     0.110774
     48 H23        27.2821  112.6019   46.3627 CW             0 LIG     0.042019
     49 H24        27.5899  113.8032   47.5652 DA             0 LIG     0.042019
     50 H25        28.9466  112.4873   48.8804 DB             0 LIG     0.082888
     51 H26        28.0375  111.0554   48.6771 DC             0 LIG     0.082888
     52 H27        23.9955  113.1235   48.0073 DD             0 LIG     0.271082
@<TRIPOS>BOND
        1  1  2  2
        2  1  3  1
        3  1  26  1
        4  2  4  1
        5  2  27  1
        6  3  8  2
        7  3  28  1
        8  4  10  2
        9  4  29  1
        10  5  6  1
        11  5  11  2
        12  5  30  1
        13  6  12  2
        14  6  31  1
        15  7  9  2
        16  7  12  1
        17  7  32  1
        18  8  10  1
        19  8  22  1
        20  9  11  1
        21  9  22  1
        22  10  24  1
        23  11  24  1
        24  12  25  1
        25  13  14  1
        26  13  15  1
        27  13  33  1
        28  13  34  1
        29  14  16  1
        30  14  35  1
        31  14  36  1
        32  15  17  1
        33  15  37  1
        34  15  38  1
        35  16  23  1
        36  16  39  1
        37  16  40  1
        38  17  20  1
        39  17  23  1
        40  17  41  1
        41  18  23  1
        42  18  42  1
        43  18  43  1
        44  18  44  1
        45  19  25  1
        46  19  45  1
        47  19  46  1
        48  19  47  1
        49  20  21  1
        50  20  48  1
        51  20  49  1
        52  21  22  1
        53  21  50  1
        54  21  51  1
        55  23  52  1
@<TRIPOS>SUBSTRUCTURE
       1 LIG             1 RESIDUE    0 **** ROOT      0

