@<TRIPOS>MOLECULE
LIG
52 55
SMALL
USER_CHARGES
@<TRIPOS>ATOM
      1 C1         32.5882  113.1013   47.5806 AA             0 LIG     -0.151259
      2 C2         32.9587  113.2589   46.2340 AB             0 LIG     -0.151259
      3 C3         31.3977  112.4253   47.9113 AD             0 LIG     -0.219304
      4 C4         32.1396  112.7279   45.2225 AE             0 LIG     -0.194592
      5 C5         28.8984  108.9002   44.3119 AF             0 LIG     -0.194592
      6 C6         28.2996  107.7873   44.9282 AH             0 LIG     -0.194592
      7 C7         28.4601  108.9198   47.0821 AI             0 LIG     -0.277127
      8 C8         30.5533  111.8940   46.9043 AJ             0 LIG     0.085655
      9 C9         29.0369  110.0618   46.4732 AK             0 LIG     0.085655
     10 C10        30.9546  112.0411   45.5508 AN             0 LIG     0.112307
     11 C11        29.2712  110.0242   45.0744 AO             0 LIG     0.112307
     12 C12        28.0866  107.7976   46.3183 AP             0 LIG     0.162844
     13 C13        24.8267  115.2105   49.2755 AQ             0 LIG     -0.032521
     14 C14        25.0282  114.8442   50.7456 AV             0 LIG     -0.034488
     15 C15        26.0727  114.8151   48.4821 AW             0 LIG     -0.055761
     16 C16        25.3671  113.3518   50.8915 AX             0 LIG     -0.006430
     17 C17        26.3987  113.3137   48.6346 AY             1 LIG     0.133288
     18 C18        26.8722  111.5202   50.3199 AZ             0 LIG     -0.176010
     19 C19        27.7532  104.9354   46.2000 BB             0 LIG     -0.159669
     20 C20        27.6219  112.9579   47.7419 BC             0 LIG     -0.036260
     21 C21        28.4001  111.7212   48.2308 BD             0 LIG     0.036576
     22 N1         29.3542  111.2158   47.2284 BF             0 LIG     -0.187743
     23 N2         26.5579  112.9556   50.0823 BG             2 LIG     -0.192054
     24 S1         29.9966  111.3850   44.2209 BH             0 LIG     -0.197945
     25 S2         27.3173  106.4332   47.1290 BJ             0 LIG     -0.259338
     26 H1         33.2257  113.4880   48.3624 BK             0 LIG     0.162335
     27 H2         33.8748  113.7716   45.9765 BL             0 LIG     0.162335
     28 H3         31.1829  112.3007   48.9597 BM             0 LIG     0.137375
     29 H4         32.4292  112.8335   44.1869 BN             0 LIG     0.176356
     30 H5         29.0739  108.8926   43.2456 BO             0 LIG     0.176356
     31 H6         28.0115  106.9384   44.3258 BP             0 LIG     0.176356
     32 H7         28.3111  108.8657   48.1476 BQ             0 LIG     0.141006
     33 H8         23.9479  114.7027   48.8717 BS             0 LIG     0.046484
     34 H9         24.6383  116.2807   49.1760 BT             0 LIG     0.046484
     35 H10        25.8215  115.4586   51.1751 BU             0 LIG     0.051372
     36 H11        24.1222  115.0803   51.3077 BV             0 LIG     0.051372
     37 H12        25.9142  115.0541   47.4312 BW             0 LIG     0.048966
     38 H13        26.9223  115.4226   48.8000 BX             0 LIG     0.048966
     39 H14        25.5415  113.1305   51.9467 BY             0 LIG     0.095743
     40 H15        24.5077  112.7491   50.5886 BZ             0 LIG     0.095743
     41 H16        25.5339  112.7497   48.2827 CB             0 LIG     0.086415
     42 H17        26.1203  110.8726   49.8649 CI             0 LIG     0.129026
     43 H18        26.8948  111.2980   51.3885 CJ             0 LIG     0.129026
     44 H19        27.8468  111.2258   49.9329 CK             0 LIG     0.129026
     45 H20        27.4239  104.0483   46.7414 CM             0 LIG     0.110256
     46 H21        28.8330  104.8706   46.0651 CN             0 LIG     0.110256
     47 H22        27.2757  104.9279   45.2206 CT             0 LIG     0.110256
     48 H23        27.3079  112.7838   46.7117 CW             0 LIG     0.037623
     49 H24        28.3224  113.7851   47.6520 DA             0 LIG     0.037623
     50 H25        28.9090  111.9725   49.1590 DB             0 LIG     0.084613
     51 H26        27.6873  110.9655   48.5486 DC             0 LIG     0.084613
     52 H27        27.3372  113.4961   50.4319 DD             0 LIG     0.326325
@<TRIPOS>BOND
        1  1  2  2
        2  1  3  1
        3  1  26  1
        4  2  4  1
        5  2  27  1
        6  3  8  2
        7  3  28  1
        8  4  10  2
        9  4  29  1
        10  5  6  1
        11  5  11  2
        12  5  30  1
        13  6  12  2
        14  6  31  1
        15  7  9  2
        16  7  12  1
        17  7  32  1
        18  8  10  1
        19  8  22  1
        20  9  11  1
        21  9  22  1
        22  10  24  1
        23  11  24  1
        24  12  25  1
        25  13  14  1
        26  13  15  1
        27  13  33  1
        28  13  34  1
        29  14  16  1
        30  14  35  1
        31  14  36  1
        32  15  17  1
        33  15  37  1
        34  15  38  1
        35  16  23  1
        36  16  39  1
        37  16  40  1
        38  17  20  1
        39  17  23  1
        40  17  41  1
        41  18  23  1
        42  18  42  1
        43  18  43  1
        44  18  44  1
        45  19  25  1
        46  19  45  1
        47  19  46  1
        48  19  47  1
        49  20  21  1
        50  20  48  1
        51  20  49  1
        52  21  22  1
        53  21  50  1
        54  21  51  1
        55  23  52  1
@<TRIPOS>SUBSTRUCTURE
       1 LIG             1 RESIDUE    0 **** ROOT      0

