@<TRIPOS>MOLECULE
LIG
50 53
SMALL
USER_CHARGES
@<TRIPOS>ATOM
      1 C1         32.7800  112.6717   47.6385 AA             0 LIG     -0.148793
      2 C2         33.2075  112.7427   46.3000 AB             0 LIG     -0.148793
      3 C3         31.4718  112.2411   47.9407 AD             0 LIG     -0.214109
      4 C4         32.3290  112.3828   45.2661 AE             0 LIG     -0.192215
      5 C5         28.9025  108.8876   44.3049 AF             0 LIG     -0.192215
      6 C6         28.3762  107.7556   44.9443 AH             0 LIG     -0.190417
      7 C7         28.2740  108.9976   47.0395 AI             0 LIG     -0.264320
      8 C8         30.5901  111.8341   46.9116 AJ             0 LIG     0.095370
      9 C9         28.8941  110.1119   46.4343 AK             0 LIG     0.095370
     10 C10        31.0303  111.9291   45.5684 AN             0 LIG     0.116137
     11 C11        29.1875  110.0477   45.0487 AO             0 LIG     0.116137
     12 C12        28.0852  107.7972   46.3252 AP             0 LIG     -0.071581
     13 C13        24.3140  113.5853   49.2906 AQ             0 LIG     0.037365
     14 C14        25.3279  111.5967   48.4016 AV             0 LIG     0.037365
     15 C15        22.9231  113.1272   48.8073 AW             0 LIG     0.086222
     16 C16        23.9614  111.1138   47.8798 AX             0 LIG     0.086222
     17 C17        27.7712  113.2475   47.7418 AY             0 LIG     0.011333
     18 C18        28.3675  111.8359   48.0872 AZ             0 LIG     0.026484
     19 C19        26.6498  113.6240   48.7367 BB             0 LIG     0.037611
     20 N1         29.3580  111.2104   47.1946 BC             0 LIG     -0.178062
     21 N2         25.3452  113.0694   48.3836 BD             0 LIG     -0.528710
     22 N3         22.8717  111.6500   48.7254 BF             0 LIG     -0.527743
     23 F1         28.3931  106.4105   48.1796 BG             0 LIG     -0.255693
     24 F2         27.7323  105.4541   46.3547 BH             0 LIG     -0.255693
     25 F3         26.3759  106.7289   47.4732 BJ             0 LIG     -0.255693
     26 S1         29.9940  111.3909   44.2476 BK             0 LIG     -0.174420
     27 C20        27.6383  106.5633   47.0883 BL             0 LIG     0.695255
     28 H1         33.4738  112.8961   48.4354 BM             0 LIG     0.167075
     29 H2         34.2284  113.0223   46.0721 BN             0 LIG     0.167075
     30 H3         31.1997  112.1562   48.9778 BO             0 LIG     0.157041
     31 H4         32.6655  112.3932   44.2419 BP             0 LIG     0.180382
     32 H5         29.1600  108.8509   43.2597 BQ             0 LIG     0.180382
     33 H6         28.2445  106.8342   44.3896 BS             0 LIG     0.183084
     34 H7         28.0153  108.9810   48.0877 BT             0 LIG     0.171935
     35 H8         24.3409  114.6792   49.2997 BU             0 LIG     0.086347
     36 H9         24.4988  113.2649   50.3212 BV             0 LIG     0.086347
     37 H10        25.5373  111.2169   49.4029 BW             0 LIG     0.086347
     38 H11        26.1066  111.2075   47.7473 BX             0 LIG     0.086347
     39 H12        22.1479  113.4840   49.4863 BY             0 LIG     0.119217
     40 H13        22.7079  113.5603   47.8289 BZ             0 LIG     0.119217
     41 H14        23.8205  111.4358   46.8465 CB             0 LIG     0.119217
     42 H15        23.9239  110.0240   47.8770 CI             0 LIG     0.119217
     43 H16        28.5501  113.9986   47.7450 CJ             0 LIG     0.035265
     44 H17        27.3294  113.3170   46.7606 CK             0 LIG     0.035265
     45 H18        28.7723  111.8639   49.1097 CM             0 LIG     0.085093
     46 H19        27.5517  111.1041   48.0745 CN             0 LIG     0.085093
     47 H20        26.9307  113.3369   49.7540 CT             0 LIG     0.068063
     48 H21        26.5556  114.7098   48.7558 CW             0 LIG     0.068063
     49 H22        22.9817  111.2756   49.6561 DA             0 LIG     0.375757
     50 H23        21.9795  111.3642   48.3478 DB             0 LIG     0.375757
@<TRIPOS>BOND
        1  1  2  2
        2  1  3  1
        3  1  28  1
        4  2  4  1
        5  2  29  1
        6  3  8  2
        7  3  30  1
        8  4  10  2
        9  4  31  1
        10  5  6  1
        11  5  11  2
        12  5  32  1
        13  6  12  2
        14  6  33  1
        15  7  9  2
        16  7  12  1
        17  7  34  1
        18  8  10  1
        19  8  20  1
        20  9  11  1
        21  9  20  1
        22  10  26  1
        23  11  26  1
        24  12  27  1
        25  13  15  1
        26  13  21  1
        27  13  35  1
        28  13  36  1
        29  14  16  1
        30  14  21  1
        31  14  37  1
        32  14  38  1
        33  15  22  1
        34  15  39  1
        35  15  40  1
        36  16  22  1
        37  16  41  1
        38  16  42  1
        39  17  18  1
        40  17  19  1
        41  17  43  1
        42  17  44  1
        43  18  20  1
        44  18  45  1
        45  18  46  1
        46  19  21  1
        47  19  47  1
        48  19  48  1
        49  22  49  1
        50  22  50  1
        51  23  27  1
        52  24  27  1
        53  25  27  1
@<TRIPOS>SUBSTRUCTURE
       1 LIG             1 RESIDUE    0 **** ROOT      0

