@<TRIPOS>MOLECULE
LIG
50 53
SMALL
USER_CHARGES
@<TRIPOS>ATOM
      1 C1         32.7749  112.6669   47.6444 AA             0 LIG     -0.146946
      2 C2         33.2116  112.7320   46.3093 AB             0 LIG     -0.146946
      3 C3         31.4727  112.2248   47.9439 AD             0 LIG     -0.213882
      4 C4         32.3410  112.3665   45.2699 AE             0 LIG     -0.189563
      5 C5         28.8724  108.8952   44.2995 AF             0 LIG     -0.189563
      6 C6         28.3395  107.7603   44.9358 AH             0 LIG     -0.186283
      7 C7         28.3384  108.9689   47.0504 AI             0 LIG     -0.267664
      8 C8         30.5976  111.8201   46.9083 AJ             0 LIG     0.094519
      9 C9         28.8960  110.1148   46.4391 AK             0 LIG     0.094519
     10 C10        31.0414  111.9144   45.5638 AN             0 LIG     0.116195
     11 C11        29.1692  110.0547   45.0474 AO             0 LIG     0.116195
     12 C12        28.0841  107.7928   46.3212 AP             0 LIG     -0.069395
     13 C13        24.2914  114.0184   48.7793 AQ             0 LIG     -0.041121
     14 C14        25.3166  111.8169   48.5178 AV             0 LIG     -0.041121
     15 C15        22.9347  113.4058   48.3777 AW             0 LIG     0.063286
     16 C16        23.9436  111.2411   48.1212 AX             0 LIG     0.063286
     17 C17        27.8371  113.1876   47.5615 AY             0 LIG     -0.016690
     18 C18        28.4854  111.9262   48.1565 AZ             0 LIG     0.028631
     19 C19        26.7408  113.8887   48.3849 BB             0 LIG     -0.059139
     20 N1         29.3598  111.2177   47.2028 BC             0 LIG     -0.187888
     21 N2         25.4050  113.2621   48.1521 BD             0 LIG     -0.035261
     22 N3         22.8802  112.0006   48.7685 BF             0 LIG     -0.795699
     23 F1         26.3683  106.8306   47.5281 BG             0 LIG     -0.251326
     24 F2         28.3851  106.3653   48.1371 BH             0 LIG     -0.251326
     25 F3         27.5708  105.4777   46.3320 BJ             0 LIG     -0.251326
     26 S1         29.9935  111.3880   44.2436 BK             0 LIG     -0.162784
     27 C20        27.5950  106.5761   47.0825 BL             0 LIG     0.697269
     28 H1         33.4618  112.9068   48.4421 BM             0 LIG     0.171877
     29 H2         34.2296  113.0161   46.0839 BN             0 LIG     0.171877
     30 H3         31.1793  112.1321   48.9777 BO             0 LIG     0.150837
     31 H4         32.6830  112.3765   44.2472 BP             0 LIG     0.186066
     32 H5         29.1263  108.8576   43.2516 BQ             0 LIG     0.186066
     33 H6         28.1858  106.8476   44.3754 BS             0 LIG     0.189607
     34 H7         28.1852  108.8997   48.1117 BT             0 LIG     0.149674
     35 H8         24.3239  115.0587   48.4540 BU             0 LIG     0.093433
     36 H9         24.4032  114.0197   49.8631 BV             0 LIG     0.093433
     37 H10        25.4966  111.6765   49.5844 BW             0 LIG     0.093433
     38 H11        26.0645  111.2188   47.9946 BX             0 LIG     0.093433
     39 H12        22.1213  113.9462   48.8689 BY             0 LIG     0.105981
     40 H13        22.7628  113.4919   47.3020 BZ             0 LIG     0.105981
     41 H14        23.8063  111.2631   47.0364 CB             0 LIG     0.105981
     42 H15        23.8766  110.1897   48.4198 CI             0 LIG     0.105981
     43 H16        28.6314  113.9092   47.3698 CJ             0 LIG     0.044237
     44 H17        27.3989  112.8863   46.6150 CK             0 LIG     0.044237
     45 H18        29.0763  112.1776   49.0397 CM             0 LIG     0.093748
     46 H19        27.7047  111.2474   48.5085 CN             0 LIG     0.093748
     47 H20        26.9958  113.8505   49.4441 CT             0 LIG     0.094892
     48 H21        26.6984  114.9504   48.1171 CW             0 LIG     0.094892
     49 H22        22.8264  111.8516   49.7751 DA             0 LIG     0.419755
     50 H23        25.2241  113.2964   47.1588 DB             0 LIG     0.340852
@<TRIPOS>BOND
        1  1  2  2
        2  1  3  1
        3  1  28  1
        4  2  4  1
        5  2  29  1
        6  3  8  2
        7  3  30  1
        8  4  10  2
        9  4  31  1
        10  5  6  1
        11  5  11  2
        12  5  32  1
        13  6  12  2
        14  6  33  1
        15  7  9  2
        16  7  12  1
        17  7  34  1
        18  8  10  1
        19  8  20  1
        20  9  11  1
        21  9  20  1
        22  10  26  1
        23  11  26  1
        24  12  27  1
        25  13  15  1
        26  13  21  1
        27  13  35  1
        28  13  36  1
        29  14  16  1
        30  14  21  1
        31  14  37  1
        32  14  38  1
        33  15  22  1
        34  15  39  1
        35  15  40  1
        36  16  22  1
        37  16  41  1
        38  16  42  1
        39  17  18  1
        40  17  19  1
        41  17  43  1
        42  17  44  1
        43  18  20  1
        44  18  45  1
        45  18  46  1
        46  19  21  1
        47  19  47  1
        48  19  48  1
        49  21  50  1
        50  22  49  1
        51  23  27  1
        52  24  27  1
        53  25  27  1
@<TRIPOS>SUBSTRUCTURE
       1 LIG             1 RESIDUE    0 **** ROOT      0

