TFP1assR
                    3D
 Structure written by MMmdl.
 50 53  0  0  1  0            999 V2000
   32.7800  112.6717   47.6385 C   0  0  0  0  0  0
   33.2075  112.7427   46.3000 C   0  0  0  0  0  0
   31.4718  112.2411   47.9407 C   0  0  0  0  0  0
   32.3290  112.3828   45.2661 C   0  0  0  0  0  0
   28.9025  108.8876   44.3049 C   0  0  0  0  0  0
   28.3762  107.7556   44.9443 C   0  0  0  0  0  0
   28.2740  108.9976   47.0395 C   0  0  0  0  0  0
   30.5901  111.8341   46.9116 C   0  0  0  0  0  0
   28.8941  110.1119   46.4343 C   0  0  0  0  0  0
   31.0303  111.9291   45.5684 C   0  0  0  0  0  0
   29.1875  110.0477   45.0487 C   0  0  0  0  0  0
   28.0852  107.7972   46.3252 C   0  0  0  0  0  0
   24.3140  113.5853   49.2906 C   0  0  0  0  0  0
   25.3279  111.5967   48.4016 C   0  0  0  0  0  0
   22.9231  113.1272   48.8073 C   0  0  0  0  0  0
   23.9614  111.1138   47.8798 C   0  0  0  0  0  0
   27.7712  113.2475   47.7418 C   0  0  0  0  0  0
   28.3675  111.8359   48.0872 C   0  0  0  0  0  0
   26.6498  113.6240   48.7367 C   0  0  0  0  0  0
   29.3580  111.2104   47.1946 N   0  0  0  0  0  0
   25.3452  113.0694   48.3836 N   0  0  0  0  0  0
   22.8717  111.6500   48.7254 N   0  3  0  0  0  0
   28.3931  106.4105   48.1796 F   0  0  0  0  0  0
   27.7323  105.4541   46.3547 F   0  0  0  0  0  0
   26.3759  106.7289   47.4732 F   0  0  0  0  0  0
   29.9940  111.3909   44.2476 S   0  0  0  0  0  0
   27.6383  106.5633   47.0883 C   0  0  0  0  0  0
   33.4738  112.8961   48.4354 H   0  0  0  0  0  0
   34.2284  113.0223   46.0721 H   0  0  0  0  0  0
   31.1997  112.1562   48.9778 H   0  0  0  0  0  0
   32.6655  112.3932   44.2419 H   0  0  0  0  0  0
   29.1600  108.8509   43.2597 H   0  0  0  0  0  0
   28.2445  106.8342   44.3896 H   0  0  0  0  0  0
   28.0153  108.9810   48.0877 H   0  0  0  0  0  0
   24.3409  114.6792   49.2997 H   0  0  0  0  0  0
   24.4988  113.2649   50.3212 H   0  0  0  0  0  0
   25.5373  111.2169   49.4029 H   0  0  0  0  0  0
   26.1066  111.2075   47.7473 H   0  0  0  0  0  0
   22.1479  113.4840   49.4863 H   0  0  0  0  0  0
   22.7079  113.5603   47.8289 H   0  0  0  0  0  0
   23.8205  111.4358   46.8465 H   0  0  0  0  0  0
   23.9239  110.0240   47.8770 H   0  0  0  0  0  0
   28.5501  113.9986   47.7450 H   0  0  0  0  0  0
   27.3294  113.3170   46.7606 H   0  0  0  0  0  0
   28.7723  111.8639   49.1097 H   0  0  0  0  0  0
   27.5517  111.1041   48.0745 H   0  0  0  0  0  0
   26.9307  113.3369   49.7540 H   0  0  0  0  0  0
   26.5556  114.7098   48.7558 H   0  0  0  0  0  0
   22.9817  111.2756   49.6561 H   0  0  0  0  0  0
   21.9795  111.3642   48.3478 H   0  0  0  0  0  0
  1  2  2  0  0  0
  1  3  1  0  0  0
  1 28  1  0  0  0
  2  4  1  0  0  0
  2 29  1  0  0  0
  3  8  2  0  0  0
  3 30  1  0  0  0
  4 10  2  0  0  0
  4 31  1  0  0  0
  5  6  2  0  0  0
  5 11  1  0  0  0
  5 32  1  0  0  0
  6 12  1  0  0  0
  6 33  1  0  0  0
  7  9  1  0  0  0
  7 12  2  0  0  0
  7 34  1  0  0  0
  8 10  1  0  0  0
  8 20  1  0  0  0
  9 11  2  0  0  0
  9 20  1  0  0  0
 10 26  1  0  0  0
 11 26  1  0  0  0
 12 27  1  0  0  0
 13 15  1  0  0  0
 13 21  1  0  0  0
 13 35  1  0  0  0
 13 36  1  0  0  0
 14 16  1  0  0  0
 14 21  1  0  0  0
 14 37  1  0  0  0
 14 38  1  0  0  0
 15 22  1  0  0  0
 15 39  1  0  0  0
 15 40  1  0  0  0
 16 22  1  0  0  0
 16 41  1  0  0  0
 16 42  1  0  0  0
 17 18  1  0  0  0
 17 19  1  0  0  0
 17 43  1  0  0  0
 17 44  1  0  0  0
 18 20  1  0  0  0
 18 45  1  0  0  0
 18 46  1  0  0  0
 19 21  1  0  0  0
 19 47  1  0  0  0
 19 48  1  0  0  0
 22 49  1  0  0  0
 22 50  1  0  0  0
 23 27  1  0  0  0
 24 27  1  0  0  0
 25 27  1  0  0  0
M  CHG  1  22   1
M  END
> <s_m_entry_id>
590

> <s_m_entry_name>
TFP1assR.1

> <s_m_Source_Path>
/home/emilio/Dropbox/SAMPL9-eglab/mCD/ligsdfs

> <s_m_Source_File>
TFP1assR.sdf

> <i_m_Source_File_Index>
1

> <i_lp_mmshare_version>
47013

> <s_epik_input>
W2NIXTFbY0hdW2NIXVtjSF1jKGMxMilTYzNjKFtjSF1jKEMoRikoRilGKVtjSF1bY0hdMylOMltDSDJdW0NIMl1bQ0gyXU40W0NIMl1bQ0gyXVtOSF1bQ0gyXVtDSDJdNA==

> <s_epik_cmdline>
J2VwaWtfcHl0aG9uJywgJy1waHQnLCAnNC4wJywgJy1waCcsICc3LjQnLCAnLXRuJywgJzgnLCAnLW1hJywgJzIwMCcsICctaW1hZScsICc8aW5maWxlLm1hZT4nLCAnLW9tYWUnLCAnPG91dGZpbGUubWFlPic=

> <r_epik_Ionization_Penalty>
  0.0078

> <r_epik_Ionization_Penalty_Charging>
  0.0071

> <r_epik_Ionization_Penalty_Neutral>
  0.0007

> <r_epik_State_Penalty>
  0.0420

> <r_epik_Charging_Adjusted_Penalty>
0.0491285084707666

> <i_epik_Tot_Q>
1

> <i_epik_Tot_abs_Q>
1

> <s_lp_Force_Field>
OPLS3e

> <r_lp_Energy>
60.619284

> <b_lp_Chiralities_Consistent>
1

> <s_lp_Variant>
TFP-1

> <s_m_job_name>
ligprep_4

> <chiral flag>
1

> <version>
0

> <i_f3d_flags>
0

> <s_m_subgroup_title>
mCDq->ssR d_copy1

> <s_m_subgroupid>
mCDq->imported_structures_copy2

> <b_m_subgroup_collapsed>
0

$$$$
