bCDH26DM
                    3D

189196  0  0  1  0            999 V2000
   27.8225  116.3504   43.7147  C    0  0  2  0  0  0
   26.8277  115.2351   43.3871  C    0  0  1  0  0  0
   27.4559  114.0400   42.8050  C    0  0  2  0  0  0
   28.5124  114.3721   41.6635  C    0  0  1  0  0  0
   29.5224  115.4656   42.1379  C    0  0  1  0  0  0
   30.3815  116.1070   40.9494  C    0  0  0  0  0  0
   30.3754  117.7459   48.3566  C    0  0  2  0  0  0
   29.0687  118.5251   47.9218  C    0  0  1  0  0  0
   28.3206  117.6028   46.8330  C    0  0  2  0  0  0
   29.2406  117.1533   45.6943  C    0  0  1  0  0  0
   30.5368  116.4484   46.1776  C    0  0  1  0  0  0
   31.6232  116.1997   45.1374  C    0  0  0  0  0  0
   31.2557  113.6692   52.0367  C    0  0  2  0  0  0
   30.0297  114.5257   52.3086  C    0  0  1  0  0  0
   29.5388  115.2199   51.0332  C    0  0  2  0  0  0
   30.6403  115.9596   50.2410  C    0  0  1  0  0  0
   31.8456  114.9858   50.0344  C    0  0  1  0  0  0
   33.0633  115.7512   49.4576  C    0  0  0  0  0  0
   32.1610  108.5729   50.9432  C    0  0  2  0  0  0
   30.7186  108.7590   51.6216  C    0  0  1  0  0  0
   30.2382  110.2577   51.3854  C    0  0  2  0  0  0
   31.2671  111.2594   51.8650  C    0  0  1  0  0  0
   32.7701  110.9493   51.3887  C    0  0  1  0  0  0
   33.8511  111.8006   52.1978  C    0  0  0  0  0  0
   33.5090  106.9126   46.0567  C    0  0  2  0  0  0
   32.7691  105.9835   47.0891  C    0  0  1  0  0  0
   31.9801  106.8536   48.1025  C    0  0  2  0  0  0
   32.9722  107.9245   48.8145  C    0  0  1  0  0  0
   33.7602  108.6894   47.7328  C    0  0  1  0  0  0
   34.8779  109.7598   48.2246  C    0  0  0  0  0  0
   32.7667  108.7272   41.0734  C    0  0  2  0  0  0
   32.3132  107.3194   41.3966  C    0  0  1  0  0  0
   31.9804  107.0477   42.8991  C    0  0  2  0  0  0
   33.0167  107.7189   43.8374  C    0  0  1  0  0  0
   33.3267  109.1704   43.4302  C    0  0  1  0  0  0
   34.5915  109.7840   44.1887  C    0  0  0  0  0  0
   29.5370  112.8992   39.9272  C    0  0  1  0  0  0
   28.9579  111.5066   39.5984  C    0  0  1  0  0  0
   29.6323  110.4792   40.4176  C    0  0  2  0  0  0
   31.2244  110.4936   40.3221  C    0  0  1  0  0  0
   31.7144  112.0178   40.6312  C    0  0  1  0  0  0
   33.2382  112.3289   40.5602  C    0  0  0  0  0  0
   25.9358  114.8224   44.5031  O    0  0  0  0  0  0
   26.4393  113.1811   42.2306  O    0  0  0  0  0  0
   26.5383  111.8294   42.7441  C    0  0  0  0  0  0
   29.2273  113.1663   41.3499  O    0  0  0  0  0  0
   28.7462  116.5814   42.6894  O    0  0  0  0  0  0
   29.3813  116.7053   40.0778  O    0  0  0  0  0  0
   29.8922  117.6196   39.0828  C    0  0  0  0  0  0
   28.1987  118.8443   49.0965  O    0  0  0  0  0  0
   27.1361  118.3557   46.3164  O    0  0  0  0  0  0
   27.4052  119.6821   45.7465  C    0  0  0  0  0  0
   28.5969  116.0836   44.9225  O    0  0  0  0  0  0
   31.1985  117.2916   47.1888  O    0  0  0  0  0  0
   31.9992  117.4434   44.5248  O    0  0  0  0  0  0
   33.1184  117.4371   43.5777  C    0  0  0  0  0  0
   28.9335  113.7921   52.9647  O    0  0  0  0  0  0
   28.5468  116.3099   51.4719  O    0  0  0  0  0  0
   27.1809  116.0137   51.8381  C    0  0  0  0  0  0
   29.9583  116.4520   48.9332  O    0  0  0  0  0  0
   32.2456  114.4182   51.3274  O    0  0  0  0  0  0
   33.3628  116.8798   50.2353  O    0  0  0  0  0  0
   34.0007  117.9755   49.4631  C    0  0  0  0  0  0
   29.6332  107.7662   51.3141  O    0  0  0  0  0  0
   28.9780  110.5755   52.0198  O    0  0  0  0  0  0
   28.8168  110.2954   53.4343  C    0  0  0  0  0  0
   30.8949  112.4908   51.2834  O    0  0  0  0  0  0
   33.0406  109.5450   51.5220  O    0  0  0  0  0  0
   33.5228  112.0028   53.6379  O    0  0  0  0  0  0
   34.2412  112.9528   54.3572  C    0  0  0  0  0  0
   31.9282  105.1022   46.2664  O    0  0  0  0  0  0
   31.4542  105.9853   49.0925  O    0  0  0  0  0  0
   30.0441  105.6744   49.0870  C    0  0  0  0  0  0
   32.1490  108.8608   49.5843  O    0  0  0  0  0  0
   34.3195  107.7984   46.7144  O    0  0  0  0  0  0
   35.9443  109.0110   48.8539  O    0  0  0  0  0  0
   37.1142  109.8283   49.1742  C    0  0  0  0  0  0
   31.1847  106.8946   40.5688  O    0  0  0  0  0  0
   31.9261  105.6405   43.2299  O    0  0  0  0  0  0
   30.5339  105.2414   43.4277  C    0  0  0  0  0  0
   32.5910  107.7057   45.2113  O    0  0  0  0  0  0
   33.7097  109.2289   42.0372  O    0  0  0  0  0  0
   35.7871  108.9335   43.9143  O    0  0  0  0  0  0
   37.0867  109.4197   44.4279  C    0  0  0  0  0  0
   27.5072  111.4652   39.7835  O    0  0  0  0  0  0
   29.2737  109.1005   40.0041  O    0  0  0  0  0  0
   29.3685  108.7064   38.6499  C    0  0  0  0  0  0
   31.6661  109.5696   41.3172  O    0  0  0  0  0  0
   31.0096  112.8889   39.7006  O    0  0  0  0  0  0
   33.9426  111.6413   39.4500  O    0  0  0  0  0  0
   35.2988  112.0859   39.1842  C    0  0  0  0  0  0
   31.3131  115.5079   44.3791  H    0  0  0  0  0  0
   32.4919  115.6405   45.5517  H    0  0  0  0  0  0
   25.2390  114.1768   44.1127  H    0  0  0  0  0  0
   27.4118  111.3632   42.2890  H    0  0  0  0  0  0
   25.6635  111.2362   42.4046  H    0  0  0  0  0  0
   26.6788  111.7204   43.8352  H    0  0  0  0  0  0
   30.5912  118.2797   39.5335  H    0  0  0  0  0  0
   29.0199  118.1783   38.7310  H    0  0  0  0  0  0
   30.4139  117.1411   38.2511  H    0  0  0  0  0  0
   27.2573  118.5199   48.9729  H    0  0  0  0  0  0
   26.6059  119.9540   45.0415  H    0  0  0  0  0  0
   28.3188  119.6612   45.1124  H    0  0  0  0  0  0
   27.5814  120.4699   46.4880  H    0  0  0  0  0  0
   33.0593  116.8652   42.7308  H    0  0  0  0  0  0
   33.8872  116.9827   44.2030  H    0  0  0  0  0  0
   33.5293  118.4379   43.3727  H    0  0  0  0  0  0
   28.4020  113.4754   52.1775  H    0  0  0  0  0  0
   27.0397  114.9212   51.5542  H    0  0  0  0  0  0
   26.5283  116.6584   51.1884  H    0  0  0  0  0  0
   27.0602  116.2232   52.9015  H    0  0  0  0  0  0
   34.6401  117.5625   48.7157  H    0  0  0  0  0  0
   34.5773  118.6112   50.1369  H    0  0  0  0  0  0
   33.3128  118.5480   48.8742  H    0  0  0  0  0  0
   29.9680  107.0109   51.9052  H    0  0  0  0  0  0
   28.8551  109.2021   53.6393  H    0  0  0  0  0  0
   27.8419  110.6484   53.7294  H    0  0  0  0  0  0
   29.5428  110.8839   54.0420  H    0  0  0  0  0  0
   33.9477  113.0691   55.3313  H    0  0  0  0  0  0
   34.3358  113.9459   53.8407  H    0  0  0  0  0  0
   35.2651  112.4869   54.4127  H    0  0  0  0  0  0
   31.7804  105.5466   45.3763  H    0  0  0  0  0  0
   29.4101  106.6095   48.9585  H    0  0  0  0  0  0
   29.6843  105.1630   49.9831  H    0  0  0  0  0  0
   29.7997  105.0570   48.2147  H    0  0  0  0  0  0
   37.4941  110.3452   48.2911  H    0  0  0  0  0  0
   37.9554  109.2150   49.6585  H    0  0  0  0  0  0
   36.8519  110.6777   49.8554  H    0  0  0  0  0  0
   30.4905  107.5892   40.4282  H    0  0  0  0  0  0
   30.5885  104.3011   43.9770  H    0  0  0  0  0  0
   30.0907  105.1027   42.4363  H    0  0  0  0  0  0
   30.0448  105.9135   44.1368  H    0  0  0  0  0  0
   37.2756  110.3464   43.7881  H    0  0  0  0  0  0
   37.9576  108.7455   44.2634  H    0  0  0  0  0  0
   36.8871  109.6922   45.4815  H    0  0  0  0  0  0
   27.4041  110.4963   40.1038  H    0  0  0  0  0  0
   28.9381  107.6835   38.5438  H    0  0  0  0  0  0
   30.4047  108.6817   38.2565  H    0  0  0  0  0  0
   28.7210  109.2864   37.8561  H    0  0  0  0  0  0
   35.8809  112.1485   40.1259  H    0  0  0  0  0  0
   35.4755  113.0003   38.6585  H    0  0  0  0  0  0
   35.7253  111.2542   38.6177  H    0  0  0  0  0  0
   27.2804  117.2764   43.9383  H    0  0  0  0  0  0
   26.2260  115.6880   42.5894  H    0  0  0  0  0  0
   27.9434  113.6443   43.7045  H    0  0  0  0  0  0
   27.9532  114.7138   40.7838  H    0  0  0  0  0  0
   30.2262  115.1092   42.9002  H    0  0  0  0  0  0
   31.2009  116.7605   41.2733  H    0  0  0  0  0  0
   30.8745  115.3041   40.3874  H    0  0  0  0  0  0
   30.9427  118.2951   49.1167  H    0  0  0  0  0  0
   29.4612  119.4462   47.4735  H    0  0  0  0  0  0
   28.0334  116.7214   47.4196  H    0  0  0  0  0  0
   29.6799  117.9712   45.1100  H    0  0  0  0  0  0
   30.2102  115.5654   46.7408  H    0  0  0  0  0  0
   31.6914  113.3928   53.0036  H    0  0  0  0  0  0
   30.3869  115.2591   53.0421  H    0  0  0  0  0  0
   29.0921  114.5114   50.3248  H    0  0  0  0  0  0
   31.0308  116.8209   50.7454  H    0  0  0  0  0  0
   31.5441  114.2445   49.3066  H    0  0  0  0  0  0
   32.7896  116.1607   48.4767  H    0  0  0  0  0  0
   33.9059  115.0751   49.4456  H    0  0  0  0  0  0
   32.5471  107.5676   51.1793  H    0  0  0  0  0  0
   30.9147  108.6784   52.7021  H    0  0  0  0  0  0
   30.0694  110.4205   50.3074  H    0  0  0  0  0  0
   31.3595  111.2972   52.9349  H    0  0  0  0  0  0
   32.9359  111.3100   50.3424  H    0  0  0  0  0  0
   34.8018  111.2583   52.1616  H    0  0  0  0  0  0
   34.0262  112.7734   51.6963  H    0  0  0  0  0  0
   34.0754  106.2267   45.3898  H    0  0  0  0  0  0
   33.5667  105.3589   47.5317  H    0  0  0  0  0  0
   31.2799  107.5060   47.5435  H    0  0  0  0  0  0
   33.5886  107.4775   49.5780  H    0  0  0  0  0  0
   32.9464  109.2337   47.2586  H    0  0  0  0  0  0
   35.2598  110.4361   47.3950  H    0  0  0  0  0  0
   34.3637  110.4571   48.8837  H    0  0  0  0  0  0
   33.0889  108.8205   39.9848  H    0  0  0  0  0  0
   33.1799  106.6672   41.1386  H    0  0  0  0  0  0
   30.9860  107.5717   43.1314  H    0  0  0  0  0  0
   33.9603  107.1910   43.7299  H    0  0  0  0  0  0
   32.4172  109.8333   43.5406  H    0  0  0  0  0  0
   34.6379  110.7561   43.7143  H    0  0  0  0  0  0
   34.4522  109.9105   45.2652  H    0  0  0  0  0  0
   29.1252  113.6156   39.2349  H    0  0  0  0  0  0
   29.1972  111.4276   38.5762  H    0  0  0  0  0  0
   29.3895  110.4718   41.4379  H    0  0  0  0  0  0
   31.6206  110.1026   39.3804  H    0  0  0  0  0  0
   31.4352  112.1621   41.7034  H    0  0  0  0  0  0
   33.6198  111.8403   41.5198  H    0  0  0  0  0  0
   33.3123  113.3766   40.4838  H    0  0  0  0  0  0
  1  2  1  0  0  0
  1 47  1  0  0  0
  1 53  1  0  0  0
  1143  1  0  0  0
  2  3  1  0  0  0
  2 43  1  0  0  0
  2144  1  0  0  0
  3  4  1  0  0  0
  3 44  1  0  0  0
  3145  1  0  0  0
  4  5  1  0  0  0
  4 46  1  0  0  0
  4146  1  0  0  0
  5  6  1  0  0  0
  5 47  1  0  0  0
  5147  1  0  0  0
  6 48  1  0  0  0
  6148  1  0  0  0
  6149  1  0  0  0
  7  8  1  0  0  0
  7 54  1  0  0  0
  7 60  1  0  0  0
  7150  1  0  0  0
  8  9  1  0  0  0
  8 50  1  0  0  0
  8151  1  0  0  0
  9 10  1  0  0  0
  9 51  1  0  0  0
  9152  1  0  0  0
 10 11  1  0  0  0
 10 53  1  0  0  0
 10153  1  0  0  0
 11 12  1  0  0  0
 11 54  1  0  0  0
 11154  1  0  0  0
 12 55  1  0  0  0
 12 92  1  0  0  0
 12 93  1  0  0  0
 13 14  1  0  0  0
 13 61  1  0  0  0
 13 67  1  0  0  0
 13155  1  0  0  0
 14 15  1  0  0  0
 14 57  1  0  0  0
 14156  1  0  0  0
 15 16  1  0  0  0
 15 58  1  0  0  0
 15157  1  0  0  0
 16 17  1  0  0  0
 16 60  1  0  0  0
 16158  1  0  0  0
 17 18  1  0  0  0
 17 61  1  0  0  0
 17159  1  0  0  0
 18 62  1  0  0  0
 18160  1  0  0  0
 18161  1  0  0  0
 19 20  1  0  0  0
 19 68  1  0  0  0
 19 74  1  0  0  0
 19162  1  0  0  0
 20 21  1  0  0  0
 20 64  1  0  0  0
 20163  1  0  0  0
 21 22  1  0  0  0
 21 65  1  0  0  0
 21164  1  0  0  0
 22 23  1  0  0  0
 22 67  1  0  0  0
 22165  1  0  0  0
 23 24  1  0  0  0
 23 68  1  0  0  0
 23166  1  0  0  0
 24 69  1  0  0  0
 24167  1  0  0  0
 24168  1  0  0  0
 25 26  1  0  0  0
 25 75  1  0  0  0
 25 81  1  0  0  0
 25169  1  0  0  0
 26 27  1  0  0  0
 26 71  1  0  0  0
 26170  1  0  0  0
 27 28  1  0  0  0
 27 72  1  0  0  0
 27171  1  0  0  0
 28 29  1  0  0  0
 28 74  1  0  0  0
 28172  1  0  0  0
 29 30  1  0  0  0
 29 75  1  0  0  0
 29173  1  0  0  0
 30 76  1  0  0  0
 30174  1  0  0  0
 30175  1  0  0  0
 31 32  1  0  0  0
 31 82  1  0  0  0
 31 88  1  0  0  0
 31176  1  0  0  0
 32 33  1  0  0  0
 32 78  1  0  0  0
 32177  1  0  0  0
 33 34  1  0  0  0
 33 79  1  0  0  0
 33178  1  0  0  0
 34 35  1  0  0  0
 34 81  1  0  0  0
 34179  1  0  0  0
 35 36  1  0  0  0
 35 82  1  0  0  0
 35180  1  0  0  0
 36 83  1  0  0  0
 36181  1  0  0  0
 36182  1  0  0  0
 37 38  1  0  0  0
 37 46  1  0  0  0
 37 89  1  0  0  0
 37183  1  0  0  0
 38 39  1  0  0  0
 38 85  1  0  0  0
 38184  1  0  0  0
 39 40  1  0  0  0
 39 86  1  0  0  0
 39185  1  0  0  0
 40 41  1  0  0  0
 40 88  1  0  0  0
 40186  1  0  0  0
 41 42  1  0  0  0
 41 89  1  0  0  0
 41187  1  0  0  0
 42 90  1  0  0  0
 42188  1  0  0  0
 42189  1  0  0  0
 43 94  1  0  0  0
 44 45  1  0  0  0
 45 95  1  0  0  0
 45 96  1  0  0  0
 45 97  1  0  0  0
 48 49  1  0  0  0
 49 98  1  0  0  0
 49 99  1  0  0  0
 49100  1  0  0  0
 50101  1  0  0  0
 51 52  1  0  0  0
 52102  1  0  0  0
 52103  1  0  0  0
 52104  1  0  0  0
 55 56  1  0  0  0
 56105  1  0  0  0
 56106  1  0  0  0
 56107  1  0  0  0
 57108  1  0  0  0
 58 59  1  0  0  0
 59109  1  0  0  0
 59110  1  0  0  0
 59111  1  0  0  0
 62 63  1  0  0  0
 63112  1  0  0  0
 63113  1  0  0  0
 63114  1  0  0  0
 64115  1  0  0  0
 65 66  1  0  0  0
 66116  1  0  0  0
 66117  1  0  0  0
 66118  1  0  0  0
 69 70  1  0  0  0
 70119  1  0  0  0
 70120  1  0  0  0
 70121  1  0  0  0
 71122  1  0  0  0
 72 73  1  0  0  0
 73123  1  0  0  0
 73124  1  0  0  0
 73125  1  0  0  0
 76 77  1  0  0  0
 77126  1  0  0  0
 77127  1  0  0  0
 77128  1  0  0  0
 78129  1  0  0  0
 79 80  1  0  0  0
 80130  1  0  0  0
 80131  1  0  0  0
 80132  1  0  0  0
 83 84  1  0  0  0
 84133  1  0  0  0
 84134  1  0  0  0
 84135  1  0  0  0
 85136  1  0  0  0
 86 87  1  0  0  0
 87137  1  0  0  0
 87138  1  0  0  0
 87139  1  0  0  0
 90 91  1  0  0  0
 91140  1  0  0  0
 91141  1  0  0  0
 91142  1  0  0  0
M  END
> <s_m_entry_id>
14

> <s_m_Source_Path>
/home/emilio/Dropbox/sims/SAMPL9/work/receptor

> <s_m_Source_File>
bCDH26DM.mol2

> <i_m_Source_File_Index>
1

$$$$

