@<TRIPOS>MOLECULE
LIG
189 196
SMALL
USER_CHARGES
@<TRIPOS>ATOM
      1 C1         27.8225  116.3504   43.7147 aa             2 LIG     0.430935
      2 C2         26.8277  115.2351   43.3871 ab             1 LIG     0.207656
      3 C3         27.4559  114.0400   42.8050 ad             2 LIG     0.188798
      4 C4         28.5124  114.3721   41.6635 ae             1 LIG     0.195488
      5 C5         29.5224  115.4656   42.1379 af             1 LIG     0.195488
      6 C6         30.3815  116.1070   40.9494 ah             0 LIG     0.166225
      7 C7         30.3754  117.7459   48.3566 ai             2 LIG     0.430935
      8 C8         29.0687  118.5251   47.9218 aj             1 LIG     0.207656
      9 C9         28.3206  117.6028   46.8330 ak             2 LIG     0.188798
     10 C10        29.2406  117.1533   45.6943 an             1 LIG     0.195488
     11 C11        30.5368  116.4484   46.1776 ao             1 LIG     0.195488
     12 C12        31.6232  116.1997   45.1374 ap             0 LIG     0.166225
     13 C13        31.2557  113.6692   52.0367 aq             2 LIG     0.430935
     14 C14        30.0297  114.5257   52.3086 av             1 LIG     0.207656
     15 C15        29.5388  115.2199   51.0332 aw             2 LIG     0.188798
     16 C16        30.6403  115.9596   50.2410 ax             1 LIG     0.195488
     17 C17        31.8456  114.9858   50.0344 ay             1 LIG     0.195488
     18 C18        33.0633  115.7512   49.4576 az             0 LIG     0.166225
     19 C19        32.1610  108.5729   50.9432 bb             2 LIG     0.430935
     20 C20        30.7186  108.7590   51.6216 bc             1 LIG     0.207656
     21 C21        30.2382  110.2577   51.3854 bd             2 LIG     0.188798
     22 C22        31.2671  111.2594   51.8650 bf             1 LIG     0.195488
     23 C23        32.7701  110.9493   51.3887 bg             1 LIG     0.195488
     24 C24        33.8511  111.8006   52.1978 bh             0 LIG     0.166225
     25 C25        33.5090  106.9126   46.0567 bj             2 LIG     0.430935
     26 C26        32.7691  105.9835   47.0891 bk             1 LIG     0.207656
     27 C27        31.9801  106.8536   48.1025 bl             2 LIG     0.188798
     28 C28        32.9722  107.9245   48.8145 bm             1 LIG     0.195488
     29 C29        33.7602  108.6894   47.7328 bn             1 LIG     0.195488
     30 C30        34.8779  109.7598   48.2246 bo             0 LIG     0.166225
     31 C31        32.7667  108.7272   41.0734 bp             2 LIG     0.430935
     32 C32        32.3132  107.3194   41.3966 bq             1 LIG     0.207656
     33 C33        31.9804  107.0477   42.8991 bs             2 LIG     0.188798
     34 C34        33.0167  107.7189   43.8374 bt             1 LIG     0.195488
     35 C35        33.3267  109.1704   43.4302 bu             1 LIG     0.195488
     36 C36        34.5915  109.7840   44.1887 bv             0 LIG     0.166225
     37 C37        29.5370  112.8992   39.9272 bw             1 LIG     0.430935
     38 C38        28.9579  111.5066   39.5984 bx             1 LIG     0.207656
     39 C39        29.6323  110.4792   40.4176 by             2 LIG     0.188798
     40 C40        31.2244  110.4936   40.3221 bz             1 LIG     0.195488
     41 C41        31.7144  112.0178   40.6312 cb             1 LIG     0.195488
     42 C42        33.2382  112.3289   40.5602 ci             0 LIG     0.166225
     43 O1         25.9358  114.8224   44.5031 cj             0 LIG     -0.735959
     44 O2         26.4393  113.1811   42.2306 ck             0 LIG     -0.511627
     45 C43        26.5383  111.8294   42.7441 cm             0 LIG     0.074802
     46 O3         29.2273  113.1663   41.3499 cn             0 LIG     -0.542414
     47 O4         28.7462  116.5814   42.6894 ct             0 LIG     -0.542414
     48 O5         29.3813  116.7053   40.0778 cw             0 LIG     -0.511627
     49 C44        29.8922  117.6196   39.0828 da             0 LIG     0.074802
     50 O6         28.1987  118.8443   49.0965 db             0 LIG     -0.735959
     51 O7         27.1361  118.3557   46.3164 dc             0 LIG     -0.511627
     52 C45        27.4052  119.6821   45.7465 dd             0 LIG     0.074802
     53 O8         28.5969  116.0836   44.9225 de             0 LIG     -0.542414
     54 O9         31.1985  117.2916   47.1888 df             0 LIG     -0.542414
     55 O10        31.9992  117.4434   44.5248 dg             0 LIG     -0.511627
     56 C46        33.1184  117.4371   43.5777 dh             0 LIG     0.074802
     57 O11        28.9335  113.7921   52.9647 di             0 LIG     -0.735959
     58 O12        28.5468  116.3099   51.4719 dj             0 LIG     -0.511627
     59 C47        27.1809  116.0137   51.8381 dk             0 LIG     0.074802
     60 O13        29.9583  116.4520   48.9332 dl             0 LIG     -0.542414
     61 O14        32.2456  114.4182   51.3274 dm             0 LIG     -0.542414
     62 O15        33.3628  116.8798   50.2353 dn             0 LIG     -0.511627
     63 C48        34.0007  117.9755   49.4631 do             0 LIG     0.074802
     64 O16        29.6332  107.7662   51.3141 dp             0 LIG     -0.735959
     65 O17        28.9780  110.5755   52.0198 dq             0 LIG     -0.511627
     66 C49        28.8168  110.2954   53.4343 dr             0 LIG     0.074802
     67 O18        30.8949  112.4908   51.2834 ds             0 LIG     -0.542414
     68 O19        33.0406  109.5450   51.5220 dt             0 LIG     -0.542414
     69 O20        33.5228  112.0028   53.6379 dv             0 LIG     -0.511627
     70 C50        34.2412  112.9528   54.3572 dw             0 LIG     0.074802
     71 O21        31.9282  105.1022   46.2664 dx             0 LIG     -0.735959
     72 O22        31.4542  105.9853   49.0925 dz             0 LIG     -0.511627
     73 C51        30.0441  105.6744   49.0870 ea             0 LIG     0.074802
     74 O23        32.1490  108.8608   49.5843 eb             0 LIG     -0.542414
     75 O24        34.3195  107.7984   46.7144 ec             0 LIG     -0.542414
     76 O25        35.9443  109.0110   48.8539 ed             0 LIG     -0.511627
     77 C52        37.1142  109.8283   49.1742 ee             0 LIG     0.074802
     78 O26        31.1847  106.8946   40.5688 ef             0 LIG     -0.735959
     79 O27        31.9261  105.6405   43.2299 eg             0 LIG     -0.511627
     80 C53        30.5339  105.2414   43.4277 eh             0 LIG     0.074802
     81 O28        32.5910  107.7057   45.2113 ei             0 LIG     -0.542414
     82 O29        33.7097  109.2289   42.0372 ej             0 LIG     -0.542414
     83 O30        35.7871  108.9335   43.9143 ek             0 LIG     -0.511627
     84 C54        37.0867  109.4197   44.4279 el             0 LIG     0.074802
     85 O31        27.5072  111.4652   39.7835 em             0 LIG     -0.735959
     86 O32        29.2737  109.1005   40.0041 en             0 LIG     -0.511627
     87 C55        29.3685  108.7064   38.6499 eo             0 LIG     0.074802
     88 O33        31.6661  109.5696   41.3172 eq             0 LIG     -0.542414
     89 O34        31.0096  112.8889   39.7006 es             0 LIG     -0.542414
     90 O35        33.9426  111.6413   39.4500 et             0 LIG     -0.511627
     91 C56        35.2988  112.0859   39.1842 ev             0 LIG     0.074802
     92 H1         31.3131  115.5079   44.3791 ew             0 LIG     0.056965
     93 H2         32.4919  115.6405   45.5517 ex             0 LIG     0.056965
     94 H3         25.2390  114.1768   44.1127 ey             0 LIG     0.497876
     95 H4         27.4118  111.3632   42.2890 ez             0 LIG     0.066990
     96 H5         25.6635  111.2362   42.4046 fa             0 LIG     0.066990
     97 H6         26.6788  111.7204   43.8352 fb             0 LIG     0.066990
     98 H7         30.5912  118.2797   39.5335 fc             0 LIG     0.066990
     99 H8         29.0199  118.1783   38.7310 fd             0 LIG     0.066990
    100 H9         30.4139  117.1411   38.2511 ff             0 LIG     0.066990
    101 H10        27.2573  118.5199   48.9729 fg             0 LIG     0.497876
    102 H11        26.6059  119.9540   45.0415 fh             0 LIG     0.066990
    103 H12        28.3188  119.6612   45.1124 fi             0 LIG     0.066990
    104 H13        27.5814  120.4699   46.4880 fj             0 LIG     0.066990
    105 H14        33.0593  116.8652   42.7308 fk             0 LIG     0.066990
    106 H15        33.8872  116.9827   44.2030 fl             0 LIG     0.066990
    107 H16        33.5293  118.4379   43.3727 fm             0 LIG     0.066990
    108 H17        28.4020  113.4754   52.1775 fn             0 LIG     0.497876
    109 H18        27.0397  114.9212   51.5542 fo             0 LIG     0.066990
    110 H19        26.5283  116.6584   51.1884 fp             0 LIG     0.066990
    111 H20        27.0602  116.2232   52.9015 fq             0 LIG     0.066990
    112 H21        34.6401  117.5625   48.7157 fs             0 LIG     0.066990
    113 H22        34.5773  118.6112   50.1369 ft             0 LIG     0.066990
    114 H23        33.3128  118.5480   48.8742 fu             0 LIG     0.066990
    115 H24        29.9680  107.0109   51.9052 fv             0 LIG     0.497876
    116 H25        28.8551  109.2021   53.6393 fw             0 LIG     0.066990
    117 H26        27.8419  110.6484   53.7294 fx             0 LIG     0.066990
    118 H27        29.5428  110.8839   54.0420 fy             0 LIG     0.066990
    119 H28        33.9477  113.0691   55.3313 fz             0 LIG     0.066990
    120 H29        34.3358  113.9459   53.8407 gb             0 LIG     0.066990
    121 H30        35.2651  112.4869   54.4127 gc             0 LIG     0.066990
    122 H31        31.7804  105.5466   45.3763 gf             0 LIG     0.497876
    123 H32        29.4101  106.6095   48.9585 gg             0 LIG     0.066990
    124 H33        29.6843  105.1630   49.9831 gh             0 LIG     0.066990
    125 H34        29.7997  105.0570   48.2147 gi             0 LIG     0.066990
    126 H35        37.4941  110.3452   48.2911 gj             0 LIG     0.066990
    127 H36        37.9554  109.2150   49.6585 gk             0 LIG     0.066990
    128 H37        36.8519  110.6777   49.8554 gl             0 LIG     0.066990
    129 H38        30.4905  107.5892   40.4282 gm             0 LIG     0.497876
    130 H39        30.5885  104.3011   43.9770 gn             0 LIG     0.066990
    131 H40        30.0907  105.1027   42.4363 go             0 LIG     0.066990
    132 H41        30.0448  105.9135   44.1368 gp             0 LIG     0.066990
    133 H42        37.2756  110.3464   43.7881 gq             0 LIG     0.066990
    134 H43        37.9576  108.7455   44.2634 gr             0 LIG     0.066990
    135 H44        36.8871  109.6922   45.4815 gs             0 LIG     0.066990
    136 H45        27.4041  110.4963   40.1038 gt             0 LIG     0.497876
    137 H46        28.9381  107.6835   38.5438 gu             0 LIG     0.066990
    138 H47        30.4047  108.6817   38.2565 gv             0 LIG     0.066990
    139 H48        28.7210  109.2864   37.8561 gw             0 LIG     0.066990
    140 H49        35.8809  112.1485   40.1259 gx             0 LIG     0.066990
    141 H50        35.4755  113.0003   38.6585 gy             0 LIG     0.066990
    142 H51        35.7253  111.2542   38.6177 gz             0 LIG     0.066990
    143 H52        27.2804  117.2764   43.9383 hb             0 LIG     0.060700
    144 H53        26.2260  115.6880   42.5894 hd             0 LIG     0.055736
    145 H54        27.9434  113.6443   43.7045 hh             0 LIG     0.078119
    146 H55        27.9532  114.7138   40.7838 hi             0 LIG     0.050773
    147 H56        30.2262  115.1092   42.9002 hj             0 LIG     0.050773
    148 H57        31.2009  116.7605   41.2733 hk             0 LIG     0.056965
    149 H58        30.8745  115.3041   40.3874 hl             0 LIG     0.056965
    150 H59        30.9427  118.2951   49.1167 hm             0 LIG     0.060700
    151 H60        29.4612  119.4462   47.4735 hq             0 LIG     0.055736
    152 H61        28.0334  116.7214   47.4196 hr             0 LIG     0.078119
    153 H62        29.6799  117.9712   45.1100 ht             0 LIG     0.050773
    154 H63        30.2102  115.5654   46.7408 hu             0 LIG     0.050773
    155 H64        31.6914  113.3928   53.0036 hv             0 LIG     0.060700
    156 H65        30.3869  115.2591   53.0421 hy             0 LIG     0.055736
    157 H66        29.0921  114.5114   50.3248 hz             0 LIG     0.078119
    158 H67        31.0308  116.8209   50.7454 ia             0 LIG     0.050773
    159 H68        31.5441  114.2445   49.3066 ib             0 LIG     0.050773
    160 H69        32.7896  116.1607   48.4767 ic             0 LIG     0.056965
    161 H70        33.9059  115.0751   49.4456 id             0 LIG     0.056965
    162 H71        32.5471  107.5676   51.1793 ie             0 LIG     0.060700
    163 H72        30.9147  108.6784   52.7021 if             0 LIG     0.055736
    164 H73        30.0694  110.4205   50.3074 ig             0 LIG     0.078119
    165 H74        31.3595  111.2972   52.9349 ih             0 LIG     0.050773
    166 H75        32.9359  111.3100   50.3424 ii             0 LIG     0.050773
    167 H76        34.8018  111.2583   52.1616 ij             0 LIG     0.056965
    168 H77        34.0262  112.7734   51.6963 ik             0 LIG     0.056965
    169 H78        34.0754  106.2267   45.3898 il             0 LIG     0.060700
    170 H79        33.5667  105.3589   47.5317 im             0 LIG     0.055736
    171 H80        31.2799  107.5060   47.5435 io             0 LIG     0.078119
    172 H81        33.5886  107.4775   49.5780 ip             0 LIG     0.050773
    173 H82        32.9464  109.2337   47.2586 iq             0 LIG     0.050773
    174 H83        35.2598  110.4361   47.3950 is             0 LIG     0.056965
    175 H84        34.3637  110.4571   48.8837 it             0 LIG     0.056965
    176 H85        33.0889  108.8205   39.9848 iu             0 LIG     0.060700
    177 H86        33.1799  106.6672   41.1386 iv             0 LIG     0.055736
    178 H87        30.9860  107.5717   43.1314 iw             0 LIG     0.078119
    179 H88        33.9603  107.1910   43.7299 ix             0 LIG     0.050773
    180 H89        32.4172  109.8333   43.5406 iy             0 LIG     0.050773
    181 H90        34.6379  110.7561   43.7143 iz             0 LIG     0.056965
    182 H91        34.4522  109.9105   45.2652 ja             0 LIG     0.056965
    183 H92        29.1252  113.6156   39.2349 jb             0 LIG     0.060700
    184 H93        29.1972  111.4276   38.5762 jc             0 LIG     0.055736
    185 H94        29.3895  110.4718   41.4379 jd             0 LIG     0.078119
    186 H95        31.6206  110.1026   39.3804 je             0 LIG     0.050773
    187 H96        31.4352  112.1621   41.7034 jf             0 LIG     0.050773
    188 H97        33.6198  111.8403   41.5198 jg             0 LIG     0.056965
    189 H98        33.3123  113.3766   40.4838 jh             0 LIG     0.056965
@<TRIPOS>BOND
        1  1  2  1
        2  1  47  1
        3  1  53  1
        4  1  143  1
        5  2  3  1
        6  2  43  1
        7  2  144  1
        8  3  4  1
        9  3  44  1
        10  3  145  1
        11  4  5  1
        12  4  46  1
        13  4  146  1
        14  5  6  1
        15  5  47  1
        16  5  147  1
        17  6  48  1
        18  6  148  1
        19  6  149  1
        20  7  8  1
        21  7  54  1
        22  7  60  1
        23  7  150  1
        24  8  9  1
        25  8  50  1
        26  8  151  1
        27  9  10  1
        28  9  51  1
        29  9  152  1
        30  10  11  1
        31  10  53  1
        32  10  153  1
        33  11  12  1
        34  11  54  1
        35  11  154  1
        36  12  55  1
        37  12  92  1
        38  12  93  1
        39  13  14  1
        40  13  61  1
        41  13  67  1
        42  13  155  1
        43  14  15  1
        44  14  57  1
        45  14  156  1
        46  15  16  1
        47  15  58  1
        48  15  157  1
        49  16  17  1
        50  16  60  1
        51  16  158  1
        52  17  18  1
        53  17  61  1
        54  17  159  1
        55  18  62  1
        56  18  160  1
        57  18  161  1
        58  19  20  1
        59  19  68  1
        60  19  74  1
        61  19  162  1
        62  20  21  1
        63  20  64  1
        64  20  163  1
        65  21  22  1
        66  21  65  1
        67  21  164  1
        68  22  23  1
        69  22  67  1
        70  22  165  1
        71  23  24  1
        72  23  68  1
        73  23  166  1
        74  24  69  1
        75  24  167  1
        76  24  168  1
        77  25  26  1
        78  25  75  1
        79  25  81  1
        80  25  169  1
        81  26  27  1
        82  26  71  1
        83  26  170  1
        84  27  28  1
        85  27  72  1
        86  27  171  1
        87  28  29  1
        88  28  74  1
        89  28  172  1
        90  29  30  1
        91  29  75  1
        92  29  173  1
        93  30  76  1
        94  30  174  1
        95  30  175  1
        96  31  32  1
        97  31  82  1
        98  31  88  1
        99  31  176  1
        100  32  33  1
        101  32  78  1
        102  32  177  1
        103  33  34  1
        104  33  79  1
        105  33  178  1
        106  34  35  1
        107  34  81  1
        108  34  179  1
        109  35  36  1
        110  35  82  1
        111  35  180  1
        112  36  83  1
        113  36  181  1
        114  36  182  1
        115  37  38  1
        116  37  46  1
        117  37  89  1
        118  37  183  1
        119  38  39  1
        120  38  85  1
        121  38  184  1
        122  39  40  1
        123  39  86  1
        124  39  185  1
        125  40  41  1
        126  40  88  1
        127  40  186  1
        128  41  42  1
        129  41  89  1
        130  41  187  1
        131  42  90  1
        132  42  188  1
        133  42  189  1
        134  43  94  1
        135  44  45  1
        136  45  95  1
        137  45  96  1
        138  45  97  1
        139  48  49  1
        140  49  98  1
        141  49  99  1
        142  49  100  1
        143  50  101  1
        144  51  52  1
        145  52  102  1
        146  52  103  1
        147  52  104  1
        148  55  56  1
        149  56  105  1
        150  56  106  1
        151  56  107  1
        152  57  108  1
        153  58  59  1
        154  59  109  1
        155  59  110  1
        156  59  111  1
        157  62  63  1
        158  63  112  1
        159  63  113  1
        160  63  114  1
        161  64  115  1
        162  65  66  1
        163  66  116  1
        164  66  117  1
        165  66  118  1
        166  69  70  1
        167  70  119  1
        168  70  120  1
        169  70  121  1
        170  71  122  1
        171  72  73  1
        172  73  123  1
        173  73  124  1
        174  73  125  1
        175  76  77  1
        176  77  126  1
        177  77  127  1
        178  77  128  1
        179  78  129  1
        180  79  80  1
        181  80  130  1
        182  80  131  1
        183  80  132  1
        184  83  84  1
        185  84  133  1
        186  84  134  1
        187  84  135  1
        188  85  136  1
        189  86  87  1
        190  87  137  1
        191  87  138  1
        192  87  139  1
        193  90  91  1
        194  91  140  1
        195  91  141  1
        196  91  142  1
@<TRIPOS>SUBSTRUCTURE
       1 LIG             1 RESIDUE    0 **** ROOT      0

