@<TRIPOS>MOLECULE
LIG
41 43
SMALL
USER_CHARGES
@<TRIPOS>ATOM
      1 C1         23.9748  105.2937   47.1629 AA             0 LIG     -0.148984
      2 C2         23.2111  106.3794   47.5742 AB             0 LIG     -0.148984
      3 C3         24.9953  105.4717   46.2302 AD             0 LIG     -0.216162
      4 C4         23.4848  107.6442   47.0658 AE             0 LIG     -0.191448
      5 C5         27.4370  110.3383   45.6222 AF             0 LIG     -0.191448
      6 C6         28.8230  110.1945   45.5239 AH             0 LIG     -0.201273
      7 C7         28.5296  107.8751   44.9404 AI             0 LIG     -0.282378
      8 C8         25.2844  106.7361   45.6771 AJ             0 LIG     0.090825
      9 C9         27.1231  107.9883   45.0090 AK             0 LIG     0.090825
     10 C10        24.5147  107.8277   46.1397 AN             0 LIG     0.113170
     11 C11        26.6016  109.2439   45.3802 AO             0 LIG     0.113170
     12 C12        29.3956  108.9208   45.1714 AP             0 LIG     0.139586
     13 C13        24.1448  108.8534   40.1439 AQ             0 LIG     -0.327670
     14 C14        23.2055  106.7385   39.3155 AV             0 LIG     -0.327670
     15 C15        25.1446  107.2355   42.5234 AW             0 LIG     -0.018552
     16 C16        26.1785  106.4403   43.3021 AX             0 LIG     0.030051
     17 C17        24.8326  106.6770   41.1412 AY             0 LIG     0.155353
     18 N1         26.2592  106.9196   44.6667 AZ             0 LIG     -0.186524
     19 N2         23.7541  107.4601   40.4815 BB             0 LIG     0.134459
     20 S1         24.8794  109.4647   45.6272 BC             0 LIG     -0.184949
     21 CL1        31.0793  108.7719   45.0771 BD             0 LIG     -0.163674
     22 H1         23.7748  104.3111   47.5636 BF             0 LIG     0.167367
     23 H2         22.4193  106.2446   48.2959 BG             0 LIG     0.167367
     24 H3         25.5474  104.5901   45.9547 BH             0 LIG     0.144463
     25 H4         22.9056  108.4883   47.4110 BJ             0 LIG     0.182657
     26 H5         27.0283  111.2907   45.9060 BK             0 LIG     0.182657
     27 H6         29.4656  111.0409   45.7182 BL             0 LIG     0.185066
     28 H7         29.0073  106.9451   44.6781 BM             0 LIG     0.159917
     29 H8         25.0211  108.8720   39.4971 BN             0 LIG     0.163775
     30 H9         24.3710  109.4470   41.0286 BO             0 LIG     0.163775
     31 H10        23.3376  109.3723   39.6301 BP             0 LIG     0.163775
     32 H11        23.9716  106.6055   38.5540 BQ             0 LIG     0.163775
     33 H12        22.3695  107.2812   38.8747 BS             0 LIG     0.163775
     34 H13        22.8405  105.7549   39.6067 BT             0 LIG     0.163775
     35 H14        24.2209  107.2623   43.0881 BU             0 LIG     0.042423
     36 H15        25.5136  108.2439   42.4580 BV             0 LIG     0.042423
     37 H16        25.7895  105.4409   43.3959 BW             0 LIG     0.092460
     38 H17        27.1569  106.3559   42.8162 BX             0 LIG     0.092460
     39 H18        25.7368  106.6800   40.5360 BY             0 LIG     0.021392
     40 H19        24.5187  105.6340   41.2388 BZ             0 LIG     0.021392
     41 H20        23.0005  107.5283   41.1523 CB             0 LIG     0.237587
@<TRIPOS>BOND
        1  1  2  2
        2  1  3  1
        3  1  22  1
        4  2  4  1
        5  2  23  1
        6  3  8  2
        7  3  24  1
        8  4  10  2
        9  4  25  1
        10  5  6  1
        11  5  11  2
        12  5  26  1
        13  6  12  2
        14  6  27  1
        15  7  9  2
        16  7  12  1
        17  7  28  1
        18  8  10  1
        19  8  18  1
        20  9  11  1
        21  9  18  1
        22  10  20  1
        23  11  20  1
        24  12  21  1
        25  13  19  1
        26  13  29  1
        27  13  30  1
        28  13  31  1
        29  14  19  1
        30  14  32  1
        31  14  33  1
        32  14  34  1
        33  15  16  1
        34  15  17  1
        35  15  35  1
        36  15  36  1
        37  16  18  1
        38  16  37  1
        39  16  38  1
        40  17  19  1
        41  17  39  1
        42  17  40  1
        43  19  41  1
@<TRIPOS>SUBSTRUCTURE
       1 LIG             1 RESIDUE    0 **** ROOT      0

