@<TRIPOS>MOLECULE
LIG
41 43
SMALL
USER_CHARGES
@<TRIPOS>ATOM
      1 C1         24.0943  105.3190   47.2842 AA             0 LIG     -0.150100
      2 C2         29.3746  108.9505   45.1886 AB             0 LIG     -0.150100
      3 C3         23.3276  106.4023   47.6960 AD             0 LIG     -0.150100
      4 C4         28.8208  110.1980   45.5094 AE             0 LIG     -0.150100
      5 C5         25.0786  105.4922   46.3132 AF             0 LIG     -0.220762
      6 C6         28.5240  107.8705   44.9442 AH             0 LIG     -0.220762
      7 C7         23.5627  107.6588   47.1485 AI             0 LIG     -0.190531
      8 C8         27.4144  110.3453   45.6063 AJ             0 LIG     -0.190531
      9 C9         25.3265  106.7471   45.7179 AK             0 LIG     0.084657
     10 C10        27.1250  107.9851   45.0041 AN             0 LIG     0.084657
     11 C11        24.5569  107.8369   46.1830 AO             0 LIG     0.115853
     12 C12        26.6007  109.2496   45.3704 AP             0 LIG     0.115853
     13 C13        23.6765  107.3151   42.8010 AQ             0 LIG     -0.353988
     14 C14        24.2680  106.9142   39.9394 AV             0 LIG     -0.185375
     15 C15        25.2808  104.9015   40.9332 AW             0 LIG     -0.185375
     16 C16        26.0848  106.3374   43.3346 AX             0 LIG     0.002465
     17 C17        25.1278  107.0501   42.2976 AY             1 LIG     0.085935
     18 N1         26.2608  106.9168   44.6668 AZ             0 LIG     -0.190232
     19 N2         25.1697  106.3709   40.9750 BB             0 LIG     0.109280
     20 S1         24.8800  109.4672   45.6280 BC             0 LIG     -0.188456
     21 H1         23.9228  104.3429   47.7125 BD             0 LIG     0.166423
     22 H2         30.4377  108.8448   45.1246 BF             0 LIG     0.166423
     23 H3         22.5628  106.2722   48.4471 BG             0 LIG     0.166423
     24 H4         29.4666  111.0429   45.6985 BH             0 LIG     0.166423
     25 H5         25.6290  104.6111   46.0267 BJ             0 LIG     0.128375
     26 H6         29.0130  106.9452   44.7010 BK             0 LIG     0.128375
     27 H7         22.9827  108.5019   47.4939 BL             0 LIG     0.178440
     28 H8         27.0260  111.2964   45.8817 BM             0 LIG     0.178440
     29 H9         23.6570  107.8014   43.7724 BN             0 LIG     0.122803
     30 H10        23.0573  106.4183   42.8794 BO             0 LIG     0.122803
     31 H11        23.1503  107.9973   42.1253 BP             0 LIG     0.122803
     32 H12        23.2379  106.7401   40.2021 BQ             0 LIG     0.123915
     33 H13        24.4903  106.4737   38.9564 BS             0 LIG     0.123915
     34 H14        24.4152  107.9859   39.7382 BT             0 LIG     0.123915
     35 H15        24.3753  104.4838   41.3511 BU             0 LIG     0.123915
     36 H16        26.1626  104.5259   41.4591 BV             0 LIG     0.123915
     37 H17        25.3915  104.5650   39.8934 BW             0 LIG     0.123915
     38 H18        25.6575  105.4163   43.6895 BX             0 LIG     0.090289
     39 H19        26.9976  105.9686   42.8619 BY             0 LIG     0.090289
     40 H20        25.5652  108.0230   42.0935 BZ             0 LIG     0.141962
     41 H21        26.1059  106.6606   40.6729 CB             0 LIG     0.213953
@<TRIPOS>BOND
        1  1  3  2
        2  1  5  1
        3  1  21  1
        4  2  4  2
        5  2  6  1
        6  2  22  1
        7  3  7  1
        8  3  23  1
        9  4  8  1
        10  4  24  1
        11  5  9  2
        12  5  25  1
        13  6  10  2
        14  6  26  1
        15  7  11  2
        16  7  27  1
        17  8  12  2
        18  8  28  1
        19  9  11  1
        20  9  18  1
        21  10  12  1
        22  10  18  1
        23  11  20  1
        24  12  20  1
        25  13  17  1
        26  13  29  1
        27  13  30  1
        28  13  31  1
        29  14  19  1
        30  14  32  1
        31  14  33  1
        32  14  34  1
        33  15  19  1
        34  15  35  1
        35  15  36  1
        36  15  37  1
        37  16  17  1
        38  16  18  1
        39  16  38  1
        40  16  39  1
        41  17  19  1
        42  17  40  1
        43  19  41  1
@<TRIPOS>SUBSTRUCTURE
       1 LIG             1 RESIDUE    0 **** ROOT      0

