PMZ1aspR
                    3D
 Schrodinger Suite 2019-4.
 41 43  0  0  1  0            999 V2000
   24.1584  105.1396   47.1022  C    0  0  0  0  0  0
   29.3787  108.9236   45.1774  C    0  0  0  0  0  0
   23.3986  106.2059   47.6556  C    0  0  0  0  0  0
   28.9046  110.1340   45.5900  C    0  0  0  0  0  0
   25.1028  105.4386   46.0849  C    0  0  0  0  0  0
   28.4956  107.8569   44.7952  C    0  0  0  0  0  0
   23.5814  107.4912   47.1556  C    0  0  0  0  0  0
   27.4995  110.3381   45.8017  C    0  0  0  0  0  0
   25.2787  106.7068   45.6535  C    0  0  0  0  0  0
   27.1117  108.0598   44.8463  C    0  0  0  0  0  0
   24.4934  107.7564   46.1164  C    0  0  0  0  0  0
   26.5911  109.2769   45.3989  C    0  0  0  0  0  0
   24.0852  108.4139   39.4598  C    0  0  0  0  0  0
   22.7392  106.4275   39.8868  C    0  0  0  0  0  0
   25.1568  107.3256   42.5007  C    0  0  0  0  0  0
   26.1309  106.4772   43.3214  C    0  0  0  0  0  0
   24.7466  106.7502   41.1911  C    0  0  0  0  0  0
   26.2930  106.9688   44.6808  N    0  0  0  0  0  0
   23.6025  107.4485   40.5745  N    0  3  0  0  0  0
   24.8336  109.4504   45.6251  S    0  0  0  0  0  0
   23.9617  104.1057   47.2984  H    0  0  0  0  0  0
   30.4781  108.7706   45.0006  H    0  0  0  0  0  0
   22.7525  106.0159   48.4663  H    0  0  0  0  0  0
   29.5570  110.9625   45.8309  H    0  0  0  0  0  0
   25.6642  104.6238   45.6499  H    0  0  0  0  0  0
   28.8881  106.9183   44.5348  H    0  0  0  0  0  0
   22.9123  108.2456   47.5106  H    0  0  0  0  0  0
   27.1054  111.1889   46.2315  H    0  0  0  0  0  0
   24.6248  107.9644   38.5891  H    0  0  0  0  0  0
   24.6521  109.1706   39.9249  H    0  0  0  0  0  0
   23.2047  108.9194   39.0836  H    0  0  0  0  0  0
   22.2321  105.8194   40.6266  H    0  0  0  0  0  0
   23.3158  105.8239   39.1649  H    0  0  0  0  0  0
   21.9655  106.9443   39.4211  H    0  0  0  0  0  0
   24.2103  107.5307   43.0044  H    0  0  0  0  0  0
   25.6096  108.3555   42.3313  H    0  0  0  0  0  0
   25.8200  105.4272   43.3863  H    0  0  0  0  0  0
   27.1471  106.4323   42.9082  H    0  0  0  0  0  0
   25.5281  106.5516   40.4456  H    0  0  0  0  0  0
   24.4387  105.7411   41.5883  H    0  0  0  0  0  0
   23.0652  107.9070   41.3608  H    0  0  0  0  0  0
  1  3  2  0  0  0
  1  5  1  0  0  0
  1 21  1  0  0  0
  2  4  2  0  0  0
  2  6  1  0  0  0
  2 22  1  0  0  0
  3  7  1  0  0  0
  3 23  1  0  0  0
  4  8  1  0  0  0
  4 24  1  0  0  0
  5  9  2  0  0  0
  5 25  1  0  0  0
  6 10  2  0  0  0
  6 26  1  0  0  0
  7 11  2  0  0  0
  7 27  1  0  0  0
  8 12  2  0  0  0
  8 28  1  0  0  0
  9 11  1  0  0  0
  9 18  1  0  0  0
 10 12  1  0  0  0
 10 18  1  0  0  0
 11 20  1  0  0  0
 12 20  1  0  0  0
 13 19  1  0  0  0
 13 29  1  0  0  0
 13 30  1  0  0  0
 13 31  1  0  0  0
 14 19  1  0  0  0
 14 32  1  0  0  0
 14 33  1  0  0  0
 14 34  1  0  0  0
 15 16  1  0  0  0
 15 17  1  0  0  0
 15 35  1  0  0  0
 15 36  1  0  0  0
 16 18  1  0  0  0
 16 37  1  0  0  0
 16 38  1  0  0  0
 17 19  1  0  0  0
 17 39  1  0  0  0
 17 40  1  0  0  0
 19 41  1  0  0  0
M  CHG  1  19   1
M  END
> <s_m_entry_id>
206

> <s_m_Source_Path>
/home/emilio/Dropbox/SAMPL9-eglab/mCD/ligsdfs

> <s_m_Source_File>
PMZ1aspR.sdf

> <i_m_Source_File_Index>
1

> <r_epik_Ionization_Penalty>
  0.0034

> <r_epik_State_Penalty>
  0.0024

> <i_epik_Tot_Q>
1

> <s_m_job_name>
ligprep_4

> <i_f3d_flags>
0

$$$$

