@<TRIPOS>MOLECULE
LIG
41 43
SMALL
USER_CHARGES
@<TRIPOS>ATOM
      1 C1         24.1584  105.1396   47.1022 PA             0 LIG     -0.151978
      2 C2         29.3787  108.9236   45.1774 PB             0 LIG     -0.151978
      3 C3         23.3986  106.2059   47.6556 PD             0 LIG     -0.151978
      4 C4         28.9046  110.1340   45.5900 PE             0 LIG     -0.151978
      5 C5         25.1028  105.4386   46.0849 PF             0 LIG     -0.221382
      6 C6         28.4956  107.8569   44.7952 PH             0 LIG     -0.221382
      7 C7         23.5814  107.4912   47.1556 PI             0 LIG     -0.192007
      8 C8         27.4995  110.3381   45.8017 PJ             0 LIG     -0.192007
      9 C9         25.2787  106.7068   45.6535 PK             0 LIG     0.086899
     10 C10        27.1117  108.0598   44.8463 PN             0 LIG     0.086899
     11 C11        24.4934  107.7564   46.1164 PO             0 LIG     0.115779
     12 C12        26.5911  109.2769   45.3989 PP             0 LIG     0.115779
     13 C13        24.0852  108.4139   39.4598 PQ             0 LIG     -0.319173
     14 C14        22.7392  106.4275   39.8868 PV             0 LIG     -0.319173
     15 C15        25.1568  107.3256   42.5007 PW             0 LIG     -0.018118
     16 C16        26.1309  106.4772   43.3214 PX             0 LIG     0.036275
     17 C17        24.7466  106.7502   41.1911 PY             0 LIG     0.012268
     18 N1         26.2930  106.9688   44.6808 PZ             0 LIG     -0.191498
     19 N2         23.6025  107.4485   40.5745 QB             0 LIG     0.153200
     20 S1         24.8336  109.4504   45.6251 QC             0 LIG     -0.201542
     21 H1         23.9617  104.1057   47.2984 QD             0 LIG     0.160898
     22 H2         30.4781  108.7706   45.0006 QF             0 LIG     0.160898
     23 H3         22.7525  106.0159   48.4663 QG             0 LIG     0.160898
     24 H4         29.5570  110.9625   45.8309 QH             0 LIG     0.160898
     25 H5         25.6642  104.6238   45.6499 QJ             0 LIG     0.134456
     26 H6         28.8881  106.9183   44.5348 QK             0 LIG     0.134456
     27 H7         22.9123  108.2456   47.5106 QL             0 LIG     0.174337
     28 H8         27.1054  111.1889   46.2315 QM             0 LIG     0.174337
     29 H9         24.6248  107.9644   38.5891 QN             0 LIG     0.158404
     30 H10        24.6521  109.1706   39.9249 QO             0 LIG     0.158404
     31 H11        23.2047  108.9194   39.0836 QP             0 LIG     0.158404
     32 H12        22.2321  105.8194   40.6266 QQ             0 LIG     0.158404
     33 H13        23.3158  105.8239   39.1649 QS             0 LIG     0.158404
     34 H14        21.9655  106.9443   39.4211 QT             0 LIG     0.158404
     35 H15        24.2103  107.5307   43.0044 QU             0 LIG     0.041463
     36 H16        25.6096  108.3555   42.3313 QV             0 LIG     0.041463
     37 H17        25.8200  105.4272   43.3863 QW             0 LIG     0.085391
     38 H18        27.1471  106.4323   42.9082 QX             0 LIG     0.085391
     39 H19        25.5281  106.5516   40.4456 QY             0 LIG     0.073022
     40 H20        24.4387  105.7411   41.5883 QZ             0 LIG     0.073022
     41 H21        23.0652  107.9070   41.3608 RB             0 LIG     0.265740
@<TRIPOS>BOND
        1  1  3  2
        2  1  5  1
        3  1  21  1
        4  2  4  2
        5  2  6  1
        6  2  22  1
        7  3  7  1
        8  3  23  1
        9  4  8  1
        10  4  24  1
        11  5  9  2
        12  5  25  1
        13  6  10  2
        14  6  26  1
        15  7  11  2
        16  7  27  1
        17  8  12  2
        18  8  28  1
        19  9  11  1
        20  9  18  1
        21  10  12  1
        22  10  18  1
        23  11  20  1
        24  12  20  1
        25  13  19  1
        26  13  29  1
        27  13  30  1
        28  13  31  1
        29  14  19  1
        30  14  32  1
        31  14  33  1
        32  14  34  1
        33  15  16  1
        34  15  17  1
        35  15  35  1
        36  15  36  1
        37  16  18  1
        38  16  37  1
        39  16  38  1
        40  17  19  1
        41  17  39  1
        42  17  40  1
        43  19  41  1
@<TRIPOS>SUBSTRUCTURE
       1 LIG             1 RESIDUE    0 **** ROOT      0

