@<TRIPOS>MOLECULE
LIG
52 55
SMALL
USER_CHARGES
@<TRIPOS>ATOM
      1 C1         24.0497  105.3098   47.2427 AA             0 LIG     -0.151259
      2 C2         23.4707  106.4262   47.8336 AB             0 LIG     -0.151259
      3 C3         24.9407  105.4649   46.1821 AD             0 LIG     -0.219304
      4 C4         23.7669  107.6936   47.3447 AE             0 LIG     -0.194592
      5 C5         27.4485  110.2442   45.8960 AF             0 LIG     -0.194592
      6 C6         28.8326  110.1209   45.7380 AH             0 LIG     -0.194592
      7 C7         28.5214  107.9182   44.8102 AI             0 LIG     -0.277127
      8 C8         25.2843  106.7369   45.6789 AJ             0 LIG     0.085655
      9 C9         27.1198  108.0009   44.9695 AK             0 LIG     0.085655
     10 C10        24.6487  107.8512   46.2727 AN             0 LIG     0.112307
     11 C11        26.6075  109.1998   45.5051 AO             0 LIG     0.112307
     12 C12        29.3806  108.9467   45.1775 AP             0 LIG     0.162844
     13 C13        26.0401  104.8695   39.1043 AQ             0 LIG     -0.032521
     14 C14        24.9477  105.4713   38.2234 AV             0 LIG     -0.034488
     15 C15        26.2429  105.7400   40.3443 AW             0 LIG     -0.055761
     16 C16        23.6494  105.6557   39.0229 AX             0 LIG     -0.006430
     17 C17        24.9293  105.9935   41.1347 AY             1 LIG     0.133288
     18 C18        22.5473  106.7595   40.9024 AZ             0 LIG     -0.176010
     19 C19        31.9164  109.7957   46.3129 BB             0 LIG     -0.159669
     20 C20        25.2154  106.9615   42.3140 BC             0 LIG     -0.036260
     21 C21        26.2074  106.3562   43.3284 BD             0 LIG     0.036576
     22 N1         26.2576  106.9182   44.6659 BF             0 LIG     -0.187743
     23 N2         23.8552  106.5109   40.2274 BG             2 LIG     -0.192054
     24 S1         24.8791  109.4649   45.6279 BH             0 LIG     -0.197945
     25 S2         31.1250  108.8446   44.9866 BJ             0 LIG     -0.259338
     26 H1         23.8117  104.3218   47.6079 BK             0 LIG     0.162335
     27 H2         22.7815  106.3094   48.6567 BL             0 LIG     0.162335
     28 H3         25.3505  104.5595   45.7703 BM             0 LIG     0.137375
     29 H4         23.2897  108.5555   47.7878 BN             0 LIG     0.176356
     30 H5         27.0487  111.1539   46.2995 BO             0 LIG     0.176356
     31 H6         29.4767  110.9361   46.0345 BP             0 LIG     0.176356
     32 H7         28.9728  107.0368   44.3889 BQ             0 LIG     0.141006
     33 H8         25.7783  103.8508   39.3961 BS             0 LIG     0.046484
     34 H9         26.9794  104.7969   38.5513 BT             0 LIG     0.046484
     35 H10        25.2848  106.4268   37.8190 BU             0 LIG     0.051372
     36 H11        24.7685  104.8195   37.3653 BV             0 LIG     0.051372
     37 H12        26.9901  105.2354   40.9588 BW             0 LIG     0.048966
     38 H13        26.6888  106.6934   40.0598 BX             0 LIG     0.048966
     39 H14        22.9039  106.1145   38.3699 BY             0 LIG     0.095743
     40 H15        23.2545  104.6808   39.3185 BZ             0 LIG     0.095743
     41 H16        24.5903  105.0361   41.5400 CB             0 LIG     0.086415
     42 H17        22.1795  105.8583   41.3978 CI             0 LIG     0.129026
     43 H18        21.7947  107.0755   40.1781 CJ             0 LIG     0.129026
     44 H19        22.6054  107.5611   41.6381 CK             0 LIG     0.129026
     45 H20        32.9876  109.8722   46.1270 CM             0 LIG     0.110256
     46 H21        31.7735  109.3079   47.2769 CN             0 LIG     0.110256
     47 H22        31.5013  110.8024   46.3558 CT             0 LIG     0.110256
     48 H23        25.6136  107.9061   41.9441 CW             0 LIG     0.037623
     49 H24        24.2892  107.2327   42.8028 DA             0 LIG     0.037623
     50 H25        25.8623  105.3664   43.5750 DB             0 LIG     0.084613
     51 H26        27.2171  106.2101   42.9116 DC             0 LIG     0.084613
     52 H27        24.1863  107.4023   39.8885 DD             0 LIG     0.326325
@<TRIPOS>BOND
        1  1  2  2
        2  1  3  1
        3  1  26  1
        4  2  4  1
        5  2  27  1
        6  3  8  2
        7  3  28  1
        8  4  10  2
        9  4  29  1
        10  5  6  1
        11  5  11  2
        12  5  30  1
        13  6  12  2
        14  6  31  1
        15  7  9  2
        16  7  12  1
        17  7  32  1
        18  8  10  1
        19  8  22  1
        20  9  11  1
        21  9  22  1
        22  10  24  1
        23  11  24  1
        24  12  25  1
        25  13  14  1
        26  13  15  1
        27  13  33  1
        28  13  34  1
        29  14  16  1
        30  14  35  1
        31  14  36  1
        32  15  17  1
        33  15  37  1
        34  15  38  1
        35  16  23  1
        36  16  39  1
        37  16  40  1
        38  17  20  1
        39  17  23  1
        40  17  41  1
        41  18  23  1
        42  18  42  1
        43  18  43  1
        44  18  44  1
        45  19  25  1
        46  19  45  1
        47  19  46  1
        48  19  47  1
        49  20  21  1
        50  20  48  1
        51  20  49  1
        52  21  22  1
        53  21  50  1
        54  21  51  1
        55  23  52  1
@<TRIPOS>SUBSTRUCTURE
       1 LIG             1 RESIDUE    0 **** ROOT      0

