@<TRIPOS>MOLECULE
LIG
52 55
SMALL
USER_CHARGES
@<TRIPOS>ATOM
      1 C1         23.9008  105.2927   47.1014 AA             0 LIG     -0.151741
      2 C2         23.3220  106.4064   47.6963 AB             0 LIG     -0.151741
      3 C3         24.8406  105.4549   46.0844 AD             0 LIG     -0.220252
      4 C4         23.6663  107.6782   47.2534 AE             0 LIG     -0.194616
      5 C5         27.4532  110.2345   45.9068 AF             0 LIG     -0.194616
      6 C6         28.8321  110.1167   45.7490 AH             0 LIG     -0.194616
      7 C7         28.5203  107.9213   44.8031 AI             0 LIG     -0.276550
      8 C8         25.2378  106.7310   45.6322 AJ             0 LIG     0.084603
      9 C9         27.1198  107.9978   44.9707 AK             0 LIG     0.084603
     10 C10        24.5975  107.8432   46.2246 AN             0 LIG     0.112404
     11 C11        26.6076  109.1970   45.5119 AO             0 LIG     0.112404
     12 C12        29.3716  108.9566   45.1864 AP             0 LIG     0.163041
     13 C13        22.3835  106.6635   41.6630 AQ             0 LIG     -0.029878
     14 C14        22.3663  105.1484   41.9639 AV             0 LIG     -0.034345
     15 C15        23.4642  106.9881   40.6207 AW             0 LIG     -0.054555
     16 C16        23.7503  104.4052   42.0992 AX             0 LIG     0.011138
     17 C17        24.8014  106.4413   41.0863 AY             1 LIG     0.149935
     18 C18        26.0609  104.2023   41.4420 AZ             0 LIG     -0.244054
     19 C19        31.9098  109.7500   46.3452 BB             0 LIG     -0.160589
     20 C20        25.1191  107.1597   42.4177 BC             0 LIG     -0.033239
     21 C21        26.1279  106.4047   43.3173 BD             0 LIG     0.039575
     22 N1         26.2584  106.9151   44.6646 BF             0 LIG     -0.187004
     23 N2         24.7652  104.9003   41.1586 BG             1 LIG     -0.070769
     24 S1         24.8797  109.4662   45.6278 BH             0 LIG     -0.197900
     25 S2         31.1225  108.8483   44.9825 BJ             0 LIG     -0.258446
     26 H1         23.6235  104.3019   47.4287 BK             0 LIG     0.161610
     27 H2         22.5939  106.2853   48.4848 BL             0 LIG     0.161610
     28 H3         25.2438  104.5486   45.6662 BM             0 LIG     0.136076
     29 H4         23.1875  108.5397   47.6969 BN             0 LIG     0.176324
     30 H5         27.0481  111.1455   46.3166 BO             0 LIG     0.176324
     31 H6         29.4763  110.9301   46.0501 BP             0 LIG     0.176324
     32 H7         28.9744  107.0481   44.3668 BQ             0 LIG     0.140791
     33 H8         21.4117  107.0195   41.3020 BS             0 LIG     0.046381
     34 H9         22.4974  107.2509   42.5776 BT             0 LIG     0.046381
     35 H10        21.6932  104.9432   42.7949 BU             0 LIG     0.049941
     36 H11        21.8935  104.7204   41.0820 BV             0 LIG     0.049941
     37 H12        23.1987  106.6128   39.6501 BW             0 LIG     0.046927
     38 H13        23.5506  108.0776   40.4913 BX             0 LIG     0.046927
     39 H14        24.3684  104.3458   42.9887 BY             0 LIG     0.081886
     40 H15        23.5414  103.3438   41.9681 BZ             0 LIG     0.081886
     41 H16        25.5664  106.6652   40.3698 CB             0 LIG     0.038290
     42 H17        26.3941  104.3415   42.4664 CI             0 LIG     0.142123
     43 H18        26.8618  104.5105   40.7771 CJ             0 LIG     0.142123
     44 H19        25.9212  103.1189   41.3610 CK             0 LIG     0.142123
     45 H20        32.9792  109.8461   46.1584 CM             0 LIG     0.110774
     46 H21        31.7773  109.2189   47.2878 CN             0 LIG     0.110774
     47 H22        31.4844  110.7495   46.4350 CT             0 LIG     0.110774
     48 H23        25.3967  108.1881   42.4129 CW             0 LIG     0.042019
     49 H24        24.1864  107.3956   42.8112 DA             0 LIG     0.042019
     50 H25        25.7584  105.4189   43.4790 DB             0 LIG     0.082888
     51 H26        27.1166  106.2212   42.8587 DC             0 LIG     0.082888
     52 H27        24.4600  104.5979   40.2654 DD             0 LIG     0.271082
@<TRIPOS>BOND
        1  1  2  2
        2  1  3  1
        3  1  26  1
        4  2  4  1
        5  2  27  1
        6  3  8  2
        7  3  28  1
        8  4  10  2
        9  4  29  1
        10  5  6  1
        11  5  11  2
        12  5  30  1
        13  6  12  2
        14  6  31  1
        15  7  9  2
        16  7  12  1
        17  7  32  1
        18  8  10  1
        19  8  22  1
        20  9  11  1
        21  9  22  1
        22  10  24  1
        23  11  24  1
        24  12  25  1
        25  13  14  1
        26  13  15  1
        27  13  33  1
        28  13  34  1
        29  14  16  1
        30  14  35  1
        31  14  36  1
        32  15  17  1
        33  15  37  1
        34  15  38  1
        35  16  23  1
        36  16  39  1
        37  16  40  1
        38  17  20  1
        39  17  23  1
        40  17  41  1
        41  18  23  1
        42  18  42  1
        43  18  43  1
        44  18  44  1
        45  19  25  1
        46  19  45  1
        47  19  46  1
        48  19  47  1
        49  20  21  1
        50  20  48  1
        51  20  49  1
        52  21  22  1
        53  21  50  1
        54  21  51  1
        55  23  52  1
@<TRIPOS>SUBSTRUCTURE
       1 LIG             1 RESIDUE    0 **** ROOT      0

