TDZNS1aspR
                    3D
 Structure written by MMmdl.
 52 55  0  0  1  0            999 V2000
   23.9008  105.2927   47.1014 C   0  0  0  0  0  0
   23.3220  106.4064   47.6963 C   0  0  0  0  0  0
   24.8406  105.4549   46.0844 C   0  0  0  0  0  0
   23.6663  107.6782   47.2534 C   0  0  0  0  0  0
   27.4532  110.2345   45.9068 C   0  0  0  0  0  0
   28.8321  110.1167   45.7490 C   0  0  0  0  0  0
   28.5203  107.9213   44.8031 C   0  0  0  0  0  0
   25.2378  106.7310   45.6322 C   0  0  0  0  0  0
   27.1198  107.9978   44.9707 C   0  0  0  0  0  0
   24.5975  107.8432   46.2246 C   0  0  0  0  0  0
   26.6076  109.1970   45.5119 C   0  0  0  0  0  0
   29.3716  108.9566   45.1864 C   0  0  0  0  0  0
   22.3835  106.6635   41.6630 C   0  0  0  0  0  0
   22.3663  105.1484   41.9639 C   0  0  0  0  0  0
   23.4642  106.9881   40.6207 C   0  0  0  0  0  0
   23.7503  104.4052   42.0992 C   0  0  0  0  0  0
   24.8014  106.4413   41.0863 C   0  0  1  0  0  0
   26.0609  104.2023   41.4420 C   0  0  0  0  0  0
   31.9098  109.7500   46.3452 C   0  0  0  0  0  0
   25.1191  107.1597   42.4177 C   0  0  0  0  0  0
   26.1279  106.4047   43.3173 C   0  0  0  0  0  0
   26.2584  106.9151   44.6646 N   0  0  0  0  0  0
   24.7652  104.9003   41.1586 N   0  3  1  0  0  0
   24.8797  109.4662   45.6278 S   0  0  0  0  0  0
   31.1225  108.8483   44.9825 S   0  0  0  0  0  0
   23.6235  104.3019   47.4287 H   0  0  0  0  0  0
   22.5939  106.2853   48.4848 H   0  0  0  0  0  0
   25.2438  104.5486   45.6662 H   0  0  0  0  0  0
   23.1875  108.5397   47.6969 H   0  0  0  0  0  0
   27.0481  111.1455   46.3166 H   0  0  0  0  0  0
   29.4763  110.9301   46.0501 H   0  0  0  0  0  0
   28.9744  107.0481   44.3668 H   0  0  0  0  0  0
   21.4117  107.0195   41.3020 H   0  0  0  0  0  0
   22.4974  107.2509   42.5776 H   0  0  0  0  0  0
   21.6932  104.9432   42.7949 H   0  0  0  0  0  0
   21.8935  104.7204   41.0820 H   0  0  0  0  0  0
   23.1987  106.6128   39.6501 H   0  0  0  0  0  0
   23.5506  108.0776   40.4913 H   0  0  0  0  0  0
   24.3684  104.3458   42.9887 H   0  0  0  0  0  0
   23.5414  103.3438   41.9681 H   0  0  0  0  0  0
   25.5664  106.6652   40.3698 H   0  0  0  0  0  0
   26.3941  104.3415   42.4664 H   0  0  0  0  0  0
   26.8618  104.5105   40.7771 H   0  0  0  0  0  0
   25.9212  103.1189   41.3610 H   0  0  0  0  0  0
   32.9792  109.8461   46.1584 H   0  0  0  0  0  0
   31.7773  109.2189   47.2878 H   0  0  0  0  0  0
   31.4844  110.7495   46.4350 H   0  0  0  0  0  0
   25.3967  108.1881   42.4129 H   0  0  0  0  0  0
   24.1864  107.3956   42.8112 H   0  0  0  0  0  0
   25.7584  105.4189   43.4790 H   0  0  0  0  0  0
   27.1166  106.2212   42.8587 H   0  0  0  0  0  0
   24.4600  104.5979   40.2654 H   0  0  0  0  0  0
  1  2  2  0  0  0
  1  3  1  0  0  0
  1 26  1  0  0  0
  2  4  1  0  0  0
  2 27  1  0  0  0
  3  8  2  0  0  0
  3 28  1  0  0  0
  4 10  2  0  0  0
  4 29  1  0  0  0
  5  6  2  0  0  0
  5 11  1  0  0  0
  5 30  1  0  0  0
  6 12  1  0  0  0
  6 31  1  0  0  0
  7  9  1  0  0  0
  7 12  2  0  0  0
  7 32  1  0  0  0
  8 10  1  0  0  0
  8 22  1  0  0  0
  9 11  2  0  0  0
  9 22  1  0  0  0
 10 24  1  0  0  0
 11 24  1  0  0  0
 12 25  1  0  0  0
 13 14  1  0  0  0
 13 15  1  0  0  0
 13 33  1  0  0  0
 13 34  1  0  0  0
 14 16  1  0  0  0
 14 35  1  0  0  0
 14 36  1  0  0  0
 15 17  1  0  0  0
 15 37  1  0  0  0
 15 38  1  0  0  0
 16 23  1  0  0  0
 16 39  1  0  0  0
 16 40  1  0  0  0
 17 20  1  0  0  0
 17 23  1  0  0  0
 17 41  1  0  0  0
 18 23  1  0  0  0
 18 42  1  0  0  0
 18 43  1  0  0  0
 18 44  1  0  0  0
 19 25  1  0  0  0
 19 45  1  0  0  0
 19 46  1  0  0  0
 19 47  1  0  0  0
 20 21  1  0  0  0
 20 48  1  0  0  0
 20 49  1  0  0  0
 21 22  1  0  0  0
 21 50  1  0  0  0
 21 51  1  0  0  0
 23 52  1  0  0  0
M  CHG  1  23   1
M  END
> <s_m_entry_id>
485

> <s_m_entry_name>
TDZNS1aspR.1

> <s_m_Source_Path>
/home/emilio/Dropbox/SAMPL9-eglab/mCD/ligsdfs

> <s_m_Source_File>
TDZNS1aspR.sdf

> <i_m_Source_File_Index>
1

> <i_lp_mmshare_version>
47013

> <s_epik_input>
W2NIXTFbY0hdW2NIXVtjSF1jKGMxMilTYzNjKFtjSF1jKFtjSF1bY0hdMylTW0NIM10pTjJbQ0gyXVtDSDJdW0NAQEhdNFtDSDJdW0NIMl1bQ0gyXVtDSDJdTjRbQ0gzXQ==

> <s_epik_cmdline>
J2VwaWtfcHl0aG9uJywgJy1waHQnLCAnNC4wJywgJy1waCcsICc3LjQnLCAnLXRuJywgJzgnLCAnLW1hJywgJzIwMCcsICctaW1hZScsICc8aW5maWxlLm1hZT4nLCAnLW9tYWUnLCAnPG91dGZpbGUubWFlPic=

> <r_epik_Ionization_Penalty>
  0.0017

> <r_epik_Ionization_Penalty_Charging>
  0.0017

> <r_epik_Ionization_Penalty_Neutral>
  0.0000

> <r_epik_State_Penalty>
  0.0011

> <r_epik_Charging_Adjusted_Penalty>
0.00279136850725907

> <i_epik_Tot_Q>
1

> <i_epik_Tot_abs_Q>
1

> <s_lp_Force_Field>
OPLS3e

> <r_lp_Energy>
57.252618

> <b_lp_Chiralities_Consistent>
1

> <s_lp_Variant>
TDZ-NS-1

> <s_m_job_name>
ligprep_4

> <chiral flag>
1

> <version>
0

> <i_f3d_flags>
0

> <s_m_subgroup_title>
bCDq->spR

> <s_m_subgroupid>
bCDq_copy1->spR_copy1

> <b_m_subgroup_collapsed>
0

$$$$
