@<TRIPOS>MOLECULE
LIG
50 53
SMALL
USER_CHARGES
@<TRIPOS>ATOM
      1 C1         23.9616  105.2892   47.1498 AA             0 LIG     -0.148793
      2 C2         23.3646  106.4008   47.7324 AB             0 LIG     -0.148793
      3 C3         24.8899  105.4538   46.1223 AD             0 LIG     -0.214109
      4 C4         23.6826  107.6732   47.2728 AE             0 LIG     -0.192215
      5 C5         27.4460  110.2425   45.9016 AF             0 LIG     -0.192215
      6 C6         28.8309  110.1179   45.7486 AH             0 LIG     -0.190417
      7 C7         28.5185  107.9247   44.8073 AI             0 LIG     -0.264320
      8 C8         25.2507  106.7294   45.6465 AJ             0 LIG     0.095370
      9 C9         27.1166  108.0047   44.9664 AK             0 LIG     0.095370
     10 C10        24.6026  107.8396   46.2340 AN             0 LIG     0.116137
     11 C11        26.6046  109.2015   45.5041 AO             0 LIG     0.116137
     12 C12        29.3859  108.9472   45.1780 AP             0 LIG     -0.071581
     13 C13        24.7897  105.9535   38.5823 AQ             0 LIG     0.037365
     14 C14        24.6801  108.2027   39.4487 AV             0 LIG     0.037365
     15 C15        24.0135  106.4071   37.3298 AW             0 LIG     0.086222
     16 C16        23.8140  108.5804   38.1776 AX             0 LIG     0.086222
     17 C17        25.1869  106.9006   42.2833 AY             0 LIG     0.011333
     18 C18        26.1522  106.2949   43.3389 AZ             0 LIG     0.026484
     19 C19        25.2977  106.2378   40.8789 BB             0 LIG     0.037611
     20 N1         26.2559  106.9195   44.6666 BC             0 LIG     -0.178062
     21 N2         24.4772  106.7758   39.7700 BD             0 LIG     -0.528710
     22 N3         24.2963  107.8165   37.0595 BF             0 LIG     -0.527743
     23 F1         31.2908  107.6668   45.5849 BG             0 LIG     -0.255693
     24 F2         31.5751  109.8074   45.5382 BH             0 LIG     -0.255693
     25 F3         31.1686  108.7347   43.7013 BJ             0 LIG     -0.255693
     26 S1         24.8748  109.4633   45.6271 BK             0 LIG     -0.174420
     27 C20        30.8831  108.7977   45.0067 BL             0 LIG     0.695255
     28 H1         23.7088  104.2972   47.4965 BM             0 LIG     0.167075
     29 H2         22.6463  106.2754   48.5308 BN             0 LIG     0.167075
     30 H3         25.3172  104.5530   45.7183 BO             0 LIG     0.157041
     31 H4         23.1962  108.5311   47.7124 BP             0 LIG     0.180382
     32 H5         27.0463  111.1501   46.3103 BQ             0 LIG     0.180382
     33 H6         29.4653  110.9355   46.0582 BS             0 LIG     0.183084
     34 H7         28.9809  107.0449   44.3903 BT             0 LIG     0.171935
     35 H8         24.5261  104.9159   38.7852 BU             0 LIG     0.086347
     36 H9         25.8645  105.9857   38.3853 BV             0 LIG     0.086347
     37 H10        25.7432  108.3379   39.2511 BW             0 LIG     0.086347
     38 H11        24.4709  108.8236   40.3261 BX             0 LIG     0.086347
     39 H12        24.2767  105.8461   36.4348 BY             0 LIG     0.119217
     40 H13        22.9371  106.2917   37.4838 BZ             0 LIG     0.119217
     41 H14        22.7314  108.4189   38.1669 CB             0 LIG     0.119217
     42 H15        24.0533  109.5289   37.6860 CI             0 LIG     0.119217
     43 H16        24.1557  107.0054   42.5962 CJ             0 LIG     0.035265
     44 H17        25.3948  107.9577   42.1921 CK             0 LIG     0.035265
     45 H18        25.7963  105.2966   43.5698 CM             0 LIG     0.085093
     46 H19        27.1596  106.1092   42.9171 CN             0 LIG     0.085093
     47 H20        26.3584  106.2175   40.6336 CT             0 LIG     0.068063
     48 H21        25.0109  105.1902   40.9943 CW             0 LIG     0.068063
     49 H22        25.2921  107.9999   36.9942 DA             0 LIG     0.375757
     50 H23        23.8207  108.1782   36.2553 DB             0 LIG     0.375757
@<TRIPOS>BOND
        1  1  2  2
        2  1  3  1
        3  1  28  1
        4  2  4  1
        5  2  29  1
        6  3  8  2
        7  3  30  1
        8  4  10  2
        9  4  31  1
        10  5  6  1
        11  5  11  2
        12  5  32  1
        13  6  12  2
        14  6  33  1
        15  7  9  2
        16  7  12  1
        17  7  34  1
        18  8  10  1
        19  8  20  1
        20  9  11  1
        21  9  20  1
        22  10  26  1
        23  11  26  1
        24  12  27  1
        25  13  15  1
        26  13  21  1
        27  13  35  1
        28  13  36  1
        29  14  16  1
        30  14  21  1
        31  14  37  1
        32  14  38  1
        33  15  22  1
        34  15  39  1
        35  15  40  1
        36  16  22  1
        37  16  41  1
        38  16  42  1
        39  17  18  1
        40  17  19  1
        41  17  43  1
        42  17  44  1
        43  18  20  1
        44  18  45  1
        45  18  46  1
        46  19  21  1
        47  19  47  1
        48  19  48  1
        49  22  49  1
        50  22  50  1
        51  23  27  1
        52  24  27  1
        53  25  27  1
@<TRIPOS>SUBSTRUCTURE
       1 LIG             1 RESIDUE    0 **** ROOT      0

