@<TRIPOS>MOLECULE
LIG
50 53
SMALL
USER_CHARGES
@<TRIPOS>ATOM
      1 C1         23.6705  105.2588   46.8264 AA             0 LIG     -0.146946
      2 C2         23.0587  106.3621   47.4081 AB             0 LIG     -0.146946
      3 C3         24.6996  105.4379   45.9041 AD             0 LIG     -0.213882
      4 C4         23.4655  107.6428   47.0490 AE             0 LIG     -0.189563
      5 C5         27.4537  110.2323   45.9105 AF             0 LIG     -0.189563
      6 C6         28.8303  110.1146   45.7563 AH             0 LIG     -0.186283
      7 C7         28.5167  107.9244   44.8043 AI             0 LIG     -0.267664
      8 C8         25.1521  106.7225   45.5328 AJ             0 LIG     0.094519
      9 C9         27.1187  108.0002   44.9696 AK             0 LIG     0.094519
     10 C10        24.4890  107.8255   46.1157 AN             0 LIG     0.116195
     11 C11        26.6049  109.1986   45.5119 AO             0 LIG     0.116195
     12 C12        29.3742  108.9607   45.1905 AP             0 LIG     -0.069395
     13 C13        22.6052  107.6593   39.9475 AQ             0 LIG     -0.041121
     14 C14        23.8463  109.5443   40.7911 AV             0 LIG     -0.041121
     15 C15        21.3599  108.5497   39.9044 AW             0 LIG     0.063286
     16 C16        22.5650  110.4013   40.7813 AX             0 LIG     0.063286
     17 C17        25.3249  107.1689   42.4478 AY             0 LIG     -0.016690
     18 C18        26.3021  106.3396   43.3045 AZ             0 LIG     0.028631
     19 C19        24.6846  107.0805   41.0612 BB             0 LIG     -0.059139
     20 N1         26.2561  106.9185   44.6658 BC             0 LIG     -0.187888
     21 N2         23.5468  108.0706   40.9951 BD             0 LIG     -0.035261
     22 N3         21.7243  109.9494   39.6942 BF             0 LIG     -0.795699
     23 F1         31.1425  108.6097   43.6971 BG             0 LIG     -0.251326
     24 F2         31.3179  107.7540   45.6793 BH             0 LIG     -0.251326
     25 F3         31.5638  109.8822   45.3924 BJ             0 LIG     -0.251326
     26 S1         24.8755  109.4638   45.6276 BK             0 LIG     -0.162784
     27 C20        30.8806  108.8086   44.9896 BL             0 LIG     0.697269
     28 H1         23.3521  104.2621   47.0940 BM             0 LIG     0.171877
     29 H2         22.2626  106.2271   48.1249 BN             0 LIG     0.171877
     30 H3         25.1393  104.5423   45.4976 BO             0 LIG     0.150837
     31 H4         22.9672  108.4965   47.4849 BP             0 LIG     0.186066
     32 H5         27.0450  111.1428   46.3235 BQ             0 LIG     0.186066
     33 H6         29.4640  110.9323   46.0663 BS             0 LIG     0.189607
     34 H7         28.9808  107.0552   44.3714 BT             0 LIG     0.149674
     35 H8         22.2960  106.6371   40.1437 BU             0 LIG     0.093433
     36 H9         23.1245  107.6718   38.9888 BV             0 LIG     0.093433
     37 H10        24.4562  109.7226   39.9108 BW             0 LIG     0.093433
     38 H11        24.4113  110.0519   41.5411 BX             0 LIG     0.093433
     39 H12        20.7155  108.2379   39.0830 BY             0 LIG     0.105981
     40 H13        20.7591  108.4600   40.8157 BZ             0 LIG     0.105981
     41 H14        22.0214  110.3538   41.7324 CB             0 LIG     0.105981
     42 H15        22.7991  111.4619   40.6337 CI             0 LIG     0.105981
     43 H16        24.7057  107.7592   43.1195 CJ             0 LIG     0.044237
     44 H17        26.1391  107.6720   41.9705 CK             0 LIG     0.044237
     45 H18        26.0421  105.2753   43.3082 CM             0 LIG     0.093748
     46 H19        27.3135  106.4169   42.9221 CN             0 LIG     0.093748
     47 H20        25.4211  107.2697   40.2675 CT             0 LIG     0.094892
     48 H21        24.3194  106.0566   40.9414 CW             0 LIG     0.094892
     49 H22        22.1267  110.1352   38.7792 DA             0 LIG     0.419755
     50 H23        23.0431  108.0278   41.8802 DB             0 LIG     0.340852
@<TRIPOS>BOND
        1  1  2  2
        2  1  3  1
        3  1  28  1
        4  2  4  1
        5  2  29  1
        6  3  8  2
        7  3  30  1
        8  4  10  2
        9  4  31  1
        10  5  6  1
        11  5  11  2
        12  5  32  1
        13  6  12  2
        14  6  33  1
        15  7  9  2
        16  7  12  1
        17  7  34  1
        18  8  10  1
        19  8  20  1
        20  9  11  1
        21  9  20  1
        22  10  26  1
        23  11  26  1
        24  12  27  1
        25  13  15  1
        26  13  21  1
        27  13  35  1
        28  13  36  1
        29  14  16  1
        30  14  21  1
        31  14  37  1
        32  14  38  1
        33  15  22  1
        34  15  39  1
        35  15  40  1
        36  16  22  1
        37  16  41  1
        38  16  42  1
        39  17  18  1
        40  17  19  1
        41  17  43  1
        42  17  44  1
        43  18  20  1
        44  18  45  1
        45  18  46  1
        46  19  21  1
        47  19  47  1
        48  19  48  1
        49  21  50  1
        50  22  49  1
        51  23  27  1
        52  24  27  1
        53  25  27  1
@<TRIPOS>SUBSTRUCTURE
       1 LIG             1 RESIDUE    0 **** ROOT      0

