@<TRIPOS>MOLECULE
LIG
41 43
SMALL
USER_CHARGES
@<TRIPOS>ATOM
      1 C1         22.0081  117.2112   46.6133 AA             0 LIG     -0.148984
      2 C2         21.8032  117.6327   45.2486 AB             0 LIG     -0.148984
      3 C3         22.6946  116.0116   46.8416 AD             0 LIG     -0.216162
      4 C4         22.2862  116.8420   44.1750 AE             0 LIG     -0.191448
      5 C5         22.8025  111.9654   43.0306 AF             0 LIG     -0.191448
      6 C6         22.5570  110.7053   43.6090 AH             0 LIG     -0.201273
      7 C7         23.2280  111.5791   45.7889 AI             0 LIG     -0.282378
      8 C8         23.1801  115.2113   45.7894 AJ             0 LIG     0.090825
      9 C9         23.4553  112.8552   45.2303 AK             0 LIG     0.090825
     10 C10        22.9450  115.6349   44.4492 AN             0 LIG     0.113170
     11 C11        23.2310  113.0369   43.8379 AO             0 LIG     0.113170
     12 C12        22.7694  110.5156   44.9900 AP             0 LIG     0.139586
     13 C13        28.2814  116.3492   43.6398 AQ             0 LIG     -0.327670
     14 C14        28.7394  116.2858   46.0494 AV             0 LIG     -0.327670
     15 C15        26.4299  114.0985   46.2712 AW             0 LIG     -0.018552
     16 C16        25.0075  113.9910   46.8772 AX             0 LIG     0.030051
     17 C17        26.6381  115.2232   45.2350 AY             0 LIG     0.155353
     18 N1         23.8251  113.9810   46.0034 AZ             0 LIG     -0.186524
     19 N2         28.0420  115.6162   44.9247 BB             0 LIG     0.134459
     20 S1         23.4511  114.6205   43.0972 BC             0 LIG     -0.184949
     21 CL1        22.4453  108.9816   45.7075 BD             0 LIG     -0.163674
     22 H1         21.6184  117.8032   47.3942 BF             0 LIG     0.167367
     23 H2         21.2572  118.5433   45.0406 BG             0 LIG     0.167367
     24 H3         22.8021  115.7039   47.8678 BH             0 LIG     0.144463
     25 H4         22.1132  117.1559   43.1600 BJ             0 LIG     0.182657
     26 H5         22.6328  112.1221   41.9709 BK             0 LIG     0.182657
     27 H6         22.1907  109.8942   42.9952 BL             0 LIG     0.185066
     28 H7         23.3642  111.4037   46.8423 BM             0 LIG     0.159917
     29 H8         27.8797  117.3603   43.6888 BN             0 LIG     0.163775
     30 H9         27.8373  115.8339   42.7899 BO             0 LIG     0.163775
     31 H10        29.3467  116.4328   43.4352 BP             0 LIG     0.163775
     32 H11        28.3100  117.2685   46.2500 BQ             0 LIG     0.163775
     33 H12        29.7989  116.4201   45.8324 BS             0 LIG     0.163775
     34 H13        28.6725  115.6895   46.9642 BT             0 LIG     0.163775
     35 H14        27.0591  114.2786   47.1456 BU             0 LIG     0.042423
     36 H15        26.7682  113.1384   45.8763 BV             0 LIG     0.042423
     37 H16        24.9864  113.0607   47.3992 BW             0 LIG     0.092460
     38 H17        24.9146  114.8294   47.6028 BX             0 LIG     0.092460
     39 H18        26.1267  114.9069   44.3184 BY             0 LIG     0.021392
     40 H19        26.0964  116.1117   45.5717 BZ             0 LIG     0.021392
     41 H20        28.5295  114.7386   44.8110 CB             0 LIG     0.237587
@<TRIPOS>BOND
        1  1  2  2
        2  1  3  1
        3  1  22  1
        4  2  4  1
        5  2  23  1
        6  3  8  2
        7  3  24  1
        8  4  10  2
        9  4  25  1
        10  5  6  1
        11  5  11  2
        12  5  26  1
        13  6  12  2
        14  6  27  1
        15  7  9  2
        16  7  12  1
        17  7  28  1
        18  8  10  1
        19  8  18  1
        20  9  11  1
        21  9  18  1
        22  10  20  1
        23  11  20  1
        24  12  21  1
        25  13  19  1
        26  13  29  1
        27  13  30  1
        28  13  31  1
        29  14  19  1
        30  14  32  1
        31  14  33  1
        32  14  34  1
        33  15  16  1
        34  15  17  1
        35  15  35  1
        36  15  36  1
        37  16  18  1
        38  16  37  1
        39  16  38  1
        40  17  19  1
        41  17  39  1
        42  17  40  1
        43  19  41  1
@<TRIPOS>SUBSTRUCTURE
       1 LIG             1 RESIDUE    0 **** ROOT      0

