PMT1apsS
                    3D
 Structure written by MMmdl.
 41 43  0  0  1  0            999 V2000
   22.3533  117.3895   46.5323 C   0  0  0  0  0  0
   22.7692  110.5189   44.9839 C   0  0  0  0  0  0
   22.0007  117.7338   45.2134 C   0  0  0  0  0  0
   22.5279  110.7253   43.6112 C   0  0  0  0  0  0
   23.0376  116.1875   46.7981 C   0  0  0  0  0  0
   23.2575  111.5763   45.7886 C   0  0  0  0  0  0
   22.3520  116.8723   44.1563 C   0  0  0  0  0  0
   22.7875  111.9840   43.0409 C   0  0  0  0  0  0
   23.3097  115.2653   45.7593 C   0  0  0  0  0  0
   23.4790  112.8585   45.2338 C   0  0  0  0  0  0
   23.0053  115.6541   44.4302 C   0  0  0  0  0  0
   23.2433  113.0409   43.8460 C   0  0  0  0  0  0
   27.5986  113.8220   47.2316 C   0  0  0  0  0  0
   25.5583  115.4040   44.3387 C   0  0  0  0  0  0
   27.9499  115.4994   44.8436 C   0  0  0  0  0  0
   25.0047  114.0703   46.9615 C   0  0  0  0  0  0
   26.4100  114.0651   46.2594 C   0  0  1  0  0  0
   23.8079  113.9707   46.0431 N   0  0  0  0  0  0
   26.5860  115.2918   45.4053 N   0  3  0  0  0  0
   23.4471  114.6127   43.0854 S   0  0  0  0  0  0
   22.0767  118.0485   47.3438 H   0  0  0  0  0  0
   22.5305  109.5580   45.4177 H   0  0  0  0  0  0
   21.4627  118.6513   45.0125 H   0  0  0  0  0  0
   22.1199  109.9334   42.9941 H   0  0  0  0  0  0
   23.2979  115.9768   47.8180 H   0  0  0  0  0  0
   23.3792  111.3725   46.8401 H   0  0  0  0  0  0
   22.1029  117.1377   43.1409 H   0  0  0  0  0  0
   22.5839  112.1646   41.9979 H   0  0  0  0  0  0
   27.3850  113.0223   47.9424 H   0  0  0  0  0  0
   27.8624  114.7021   47.8158 H   0  0  0  0  0  0
   28.4996  113.4996   46.7050 H   0  0  0  0  0  0
   25.6636  114.6051   43.6034 H   0  0  0  0  0  0
   25.6422  116.3530   43.8057 H   0  0  0  0  0  0
   24.5457  115.3574   44.7391 H   0  0  0  0  0  0
   28.2645  114.6435   44.2437 H   0  0  0  0  0  0
   28.6907  115.6632   45.6277 H   0  0  0  0  0  0
   27.9861  116.3868   44.2073 H   0  0  0  0  0  0
   25.0443  113.3764   47.8345 H   0  0  0  0  0  0
   24.8810  115.0350   47.4562 H   0  0  0  0  0  0
   26.4123  113.2117   45.5792 H   0  0  0  0  0  0
   26.4308  116.0758   46.0241 H   0  0  0  0  0  0
  1  3  2  0  0  0
  1  5  1  0  0  0
  1 21  1  0  0  0
  2  4  2  0  0  0
  2  6  1  0  0  0
  2 22  1  0  0  0
  3  7  1  0  0  0
  3 23  1  0  0  0
  4  8  1  0  0  0
  4 24  1  0  0  0
  5  9  2  0  0  0
  5 25  1  0  0  0
  6 10  2  0  0  0
  6 26  1  0  0  0
  7 11  2  0  0  0
  7 27  1  0  0  0
  8 12  2  0  0  0
  8 28  1  0  0  0
  9 11  1  0  0  0
  9 18  1  0  0  0
 10 12  1  0  0  0
 10 18  1  0  0  0
 11 20  1  0  0  0
 12 20  1  0  0  0
 13 17  1  0  0  0
 13 29  1  0  0  0
 13 30  1  0  0  0
 13 31  1  0  0  0
 14 19  1  0  0  0
 14 32  1  0  0  0
 14 33  1  0  0  0
 14 34  1  0  0  0
 15 19  1  0  0  0
 15 35  1  0  0  0
 15 36  1  0  0  0
 15 37  1  0  0  0
 16 17  1  0  0  0
 16 18  1  0  0  0
 16 38  1  0  0  0
 16 39  1  0  0  0
 17 19  1  0  0  0
 17 40  1  0  0  0
 19 41  1  0  0  0
M  CHG  1  19   1
M  END
> <s_m_entry_id>
402

> <s_m_entry_name>
PMT1apsS.1

> <s_m_Source_Path>
/home/emilio/Dropbox/SAMPL9-eglab/mCD/ligsdfs

> <s_m_Source_File>
PMT1apsS.sdf

> <i_m_Source_File_Index>
1

> <i_lp_mmshare_version>
47013

> <s_epik_input>
W2NIXTFbY0hdW2NIXVtjSF1jKGMxMilTYzNjKFtjSF1bY0hdW2NIXVtjSF0zKU4yW0NIMl1bQ0BIXShbQ0gzXSlOKFtDSDNdKVtDSDNd

> <s_epik_cmdline>
J2VwaWtfcHl0aG9uJywgJy1waHQnLCAnNC4wJywgJy1waCcsICc3LjQnLCAnLXRuJywgJzgnLCAnLW1hJywgJzIwMCcsICctaW1hZScsICc8aW5maWxlLm1hZT4nLCAnLW9tYWUnLCAnPG91dGZpbGUubWFlPic=

> <r_epik_Ionization_Penalty>
  0.0045

> <r_epik_Ionization_Penalty_Charging>
  0.0045

> <r_epik_Ionization_Penalty_Neutral>
  0.0000

> <r_epik_State_Penalty>
  0.0032

> <r_epik_Charging_Adjusted_Penalty>
0.00770832931686598

> <i_epik_Tot_Q>
1

> <i_epik_Tot_abs_Q>
1

> <s_lp_Force_Field>
OPLS3e

> <r_lp_Energy>
58.361695

> <b_lp_Chiralities_Consistent>
1

> <s_lp_Variant>
PMT-1

> <s_m_job_name>
ligprep_4

> <chiral flag>
1

> <version>
0

> <i_f3d_flags>
0

> <s_m_subgroup_title>
bCDq->psS

> <s_m_subgroupid>
bCDq_copy1->psS_copy1_copy1

> <b_m_subgroup_collapsed>
0

$$$$
