@<TRIPOS>MOLECULE
LIG
41 43
SMALL
USER_CHARGES
@<TRIPOS>ATOM
      1 C1         22.3533  117.3895   46.5323 AA             0 LIG     -0.150100
      2 C2         22.7692  110.5189   44.9839 AB             0 LIG     -0.150100
      3 C3         22.0007  117.7338   45.2134 AD             0 LIG     -0.150100
      4 C4         22.5279  110.7253   43.6112 AE             0 LIG     -0.150100
      5 C5         23.0376  116.1875   46.7981 AF             0 LIG     -0.220762
      6 C6         23.2575  111.5763   45.7886 AH             0 LIG     -0.220762
      7 C7         22.3520  116.8723   44.1563 AI             0 LIG     -0.190531
      8 C8         22.7875  111.9840   43.0409 AJ             0 LIG     -0.190531
      9 C9         23.3097  115.2653   45.7593 AK             0 LIG     0.084657
     10 C10        23.4790  112.8585   45.2338 AN             0 LIG     0.084657
     11 C11        23.0053  115.6541   44.4302 AO             0 LIG     0.115853
     12 C12        23.2433  113.0409   43.8460 AP             0 LIG     0.115853
     13 C13        27.5986  113.8220   47.2316 AQ             0 LIG     -0.353988
     14 C14        25.5583  115.4040   44.3387 AV             0 LIG     -0.185375
     15 C15        27.9499  115.4994   44.8436 AW             0 LIG     -0.185375
     16 C16        25.0047  114.0703   46.9615 AX             0 LIG     0.002465
     17 C17        26.4100  114.0651   46.2594 AY             1 LIG     0.085935
     18 N1         23.8079  113.9707   46.0431 AZ             0 LIG     -0.190232
     19 N2         26.5860  115.2918   45.4053 BB             0 LIG     0.109280
     20 S1         23.4471  114.6127   43.0854 BC             0 LIG     -0.188456
     21 H1         22.0767  118.0485   47.3438 BD             0 LIG     0.166423
     22 H2         22.5305  109.5580   45.4177 BF             0 LIG     0.166423
     23 H3         21.4627  118.6513   45.0125 BG             0 LIG     0.166423
     24 H4         22.1199  109.9334   42.9941 BH             0 LIG     0.166423
     25 H5         23.2979  115.9768   47.8180 BJ             0 LIG     0.128375
     26 H6         23.3792  111.3725   46.8401 BK             0 LIG     0.128375
     27 H7         22.1029  117.1377   43.1409 BL             0 LIG     0.178440
     28 H8         22.5839  112.1646   41.9979 BM             0 LIG     0.178440
     29 H9         27.3850  113.0223   47.9424 BN             0 LIG     0.122803
     30 H10        27.8624  114.7021   47.8158 BO             0 LIG     0.122803
     31 H11        28.4996  113.4996   46.7050 BP             0 LIG     0.122803
     32 H12        25.6636  114.6051   43.6034 BQ             0 LIG     0.123915
     33 H13        25.6422  116.3530   43.8057 BS             0 LIG     0.123915
     34 H14        24.5457  115.3574   44.7391 BT             0 LIG     0.123915
     35 H15        28.2645  114.6435   44.2437 BU             0 LIG     0.123915
     36 H16        28.6907  115.6632   45.6277 BV             0 LIG     0.123915
     37 H17        27.9861  116.3868   44.2073 BW             0 LIG     0.123915
     38 H18        25.0443  113.3764   47.8345 BX             0 LIG     0.090289
     39 H19        24.8810  115.0350   47.4562 BY             0 LIG     0.090289
     40 H20        26.4123  113.2117   45.5792 BZ             0 LIG     0.141962
     41 H21        26.4308  116.0758   46.0241 CB             0 LIG     0.213953
@<TRIPOS>BOND
        1  1  3  2
        2  1  5  1
        3  1  21  1
        4  2  4  2
        5  2  6  1
        6  2  22  1
        7  3  7  1
        8  3  23  1
        9  4  8  1
        10  4  24  1
        11  5  9  2
        12  5  25  1
        13  6  10  2
        14  6  26  1
        15  7  11  2
        16  7  27  1
        17  8  12  2
        18  8  28  1
        19  9  11  1
        20  9  18  1
        21  10  12  1
        22  10  18  1
        23  11  20  1
        24  12  20  1
        25  13  17  1
        26  13  29  1
        27  13  30  1
        28  13  31  1
        29  14  19  1
        30  14  32  1
        31  14  33  1
        32  14  34  1
        33  15  19  1
        34  15  35  1
        35  15  36  1
        36  15  37  1
        37  16  17  1
        38  16  18  1
        39  16  38  1
        40  16  39  1
        41  17  19  1
        42  17  40  1
        43  19  41  1
@<TRIPOS>SUBSTRUCTURE
       1 LIG             1 RESIDUE    0 **** ROOT      0

