@<TRIPOS>MOLECULE
LIG
41 43
SMALL
USER_CHARGES
@<TRIPOS>ATOM
      1 C1         22.4274  117.4555   46.4845 PA             0 LIG     -0.151978
      2 C2         22.7664  110.5033   44.9904 PB             0 LIG     -0.151978
      3 C3         22.3826  117.9030   45.1624 PD             0 LIG     -0.151978
      4 C4         22.7939  110.6416   43.6030 PE             0 LIG     -0.151978
      5 C5         22.9197  116.1570   46.7889 PF             0 LIG     -0.221382
      6 C6         23.1114  111.5863   45.8140 PH             0 LIG     -0.221382
      7 C7         22.7794  117.0571   44.1041 PI             0 LIG     -0.192007
      8 C8         22.8687  111.9484   43.0616 PJ             0 LIG     -0.192007
      9 C9         23.2146  115.2340   45.7842 PK             0 LIG     0.086899
     10 C10        23.4302  112.8678   45.2197 PN             0 LIG     0.086899
     11 C11        23.1519  115.7331   44.4081 PO             0 LIG     0.115779
     12 C12        23.2338  113.0459   43.8623 PP             0 LIG     0.115779
     13 C13        27.8267  116.4787   43.3119 PQ             0 LIG     -0.319173
     14 C14        28.9476  115.8121   45.4344 PV             0 LIG     -0.319173
     15 C15        26.4207  114.0068   45.8993 PW             0 LIG     -0.018118
     16 C16        25.1370  113.9926   46.7769 PX             0 LIG     0.036275
     17 C17        26.5340  115.3454   45.1916 PY             0 LIG     0.012268
     18 N1         23.8120  113.9620   46.0796 PZ             0 LIG     -0.191498
     19 N2         27.8604  115.4994   44.4359 QB             0 LIG     0.153200
     20 S1         23.4454  114.6378   43.0407 QC             0 LIG     -0.201542
     21 H1         22.0711  118.1234   47.2559 QD             0 LIG     0.160898
     22 H2         22.6460  109.5119   45.4383 QF             0 LIG     0.160898
     23 H3         22.0512  118.8883   44.9477 QG             0 LIG     0.160898
     24 H4         22.6240  109.7120   43.0847 QH             0 LIG     0.160898
     25 H5         23.0572  115.8876   47.8005 QJ             0 LIG     0.134456
     26 H6         23.2592  111.4770   46.8775 QK             0 LIG     0.134456
     27 H7         22.7037  117.4568   43.1127 QL             0 LIG     0.174337
     28 H8         22.6726  112.0916   41.9917 QM             0 LIG     0.174337
     29 H9         28.7791  116.6981   42.8651 QN             0 LIG     0.158404
     30 H10        27.3902  117.4084   43.6858 QO             0 LIG     0.158404
     31 H11        27.1812  116.1241   42.4851 QP             0 LIG     0.158404
     32 H12        28.6065  116.7397   45.8000 QQ             0 LIG     0.158404
     33 H13        29.9426  115.8741   44.9448 QS             0 LIG     0.158404
     34 H14        28.9544  115.0562   46.1749 QT             0 LIG     0.158404
     35 H15        27.4327  113.8181   46.4101 QU             0 LIG     0.041463
     36 H16        26.2984  113.2936   45.0892 QV             0 LIG     0.041463
     37 H17        25.1286  112.9414   47.2575 QW             0 LIG     0.085391
     38 H18        25.2317  114.6468   47.6480 QX             0 LIG     0.085391
     39 H19        25.8106  115.4022   44.3814 QY             0 LIG     0.073022
     40 H20        26.2549  116.1618   45.8788 QZ             0 LIG     0.073022
     41 H21        28.0857  114.5829   43.9992 RB             0 LIG     0.265740
@<TRIPOS>BOND
        1  1  3  2
        2  1  5  1
        3  1  21  1
        4  2  4  2
        5  2  6  1
        6  2  22  1
        7  3  7  1
        8  3  23  1
        9  4  8  1
        10  4  24  1
        11  5  9  2
        12  5  25  1
        13  6  10  2
        14  6  26  1
        15  7  11  2
        16  7  27  1
        17  8  12  2
        18  8  28  1
        19  9  11  1
        20  9  18  1
        21  10  12  1
        22  10  18  1
        23  11  20  1
        24  12  20  1
        25  13  19  1
        26  13  29  1
        27  13  30  1
        28  13  31  1
        29  14  19  1
        30  14  32  1
        31  14  33  1
        32  14  34  1
        33  15  16  1
        34  15  17  1
        35  15  35  1
        36  15  36  1
        37  16  18  1
        38  16  37  1
        39  16  38  1
        40  17  19  1
        41  17  39  1
        42  17  40  1
        43  19  41  1
@<TRIPOS>SUBSTRUCTURE
       1 LIG             1 RESIDUE    0 **** ROOT      0

