@<TRIPOS>MOLECULE
LIG
52 55
SMALL
USER_CHARGES
@<TRIPOS>ATOM
      1 C1           16.441      0.299      0.602 AA            1 LIG       -0.151259
      2 C2           16.322      1.679      0.706 AB            1 LIG       -0.151259
      3 C3           15.313     -0.510      0.728 AD            1 LIG       -0.219304
      4 C4           15.077      2.244      0.960 AE            1 LIG       -0.194592
      5 C5           10.132      1.667      0.233 AF            1 LIG       -0.194592
      6 C6            9.177      0.848     -0.358 AH            1 LIG       -0.194592
      7 C7           10.612     -1.055      0.001 AI            1 LIG       -0.277127
      8 C8           14.031      0.030      0.959 AJ            1 LIG        0.085655
      9 C9           11.609     -0.249      0.591 AK            1 LIG        0.085655
     10 C10          13.947      1.434      1.101 AN            1 LIG        0.112307
     11 C11          11.327      1.129      0.713 AO            1 LIG        0.112307
     12 C12           9.412     -0.517     -0.471 AP            1 LIG        0.162844
     13 C13          13.213     -6.755      0.732 AQ            1 LIG       -0.032521
     14 C14          13.646     -7.319     -0.627 AV            1 LIG       -0.034488
     15 C15          13.490     -5.246      0.822 AW            1 LIG       -0.055761
     16 C16          12.980     -6.565     -1.787 AX            1 LIG       -0.006430
     17 C17          12.860     -4.433     -0.342 AY            1 LIG        0.133288
     18 C18          12.726     -4.358     -2.932 AZ            1 LIG       -0.176010
     19 C19           8.958     -3.067     -1.789 BB            1 LIG       -0.159669
     20 C20          13.264     -2.933     -0.305 BC            1 LIG       -0.036260
     21 C21          13.009     -2.240      1.063 BD            1 LIG        0.036576
     22 N1           12.863     -0.770      0.998 BF            1 LIG       -0.187743
     23 N2           13.329     -5.059     -1.692 BG            1 LIG       -0.192054
     24 S1           12.435      2.203      1.545 BH            1 LIG       -0.197945
     25 S2            8.169     -1.540     -1.212 BJ            1 LIG       -0.259338
     26 H1           17.408     -0.147      0.419 BK            1 LIG        0.162335
     27 H2           17.193      2.309      0.606 BL            1 LIG        0.162335
     28 H3           15.477     -1.570      0.639 BM            1 LIG        0.137375
     29 H4           14.995      3.315      1.071 BN            1 LIG        0.176356
     30 H5            9.930      2.723      0.336 BO            1 LIG        0.176356
     31 H6            8.252      1.277     -0.717 BP            1 LIG        0.176356
     32 H7           10.756     -2.117     -0.103 BQ            1 LIG        0.141006
     33 H8           12.149     -6.943      0.886 BS            1 LIG        0.046484
     34 H9           13.734     -7.279      1.536 BT            1 LIG        0.046484
     35 H10          14.731     -7.261     -0.726 BU            1 LIG        0.051372
     36 H11          13.392     -8.378     -0.684 BV            1 LIG        0.051372
     37 H12          13.110     -4.888      1.780 BW            1 LIG        0.048966
     38 H13          14.570     -5.087      0.838 BX            1 LIG        0.048966
     39 H14          13.381     -6.925     -2.736 BY            1 LIG        0.095743
     40 H15          11.892     -6.655     -1.783 BZ            1 LIG        0.095743
     41 H16          11.773     -4.536     -0.336 CB            1 LIG        0.086415
     42 H17          11.641     -4.349     -2.819 CI            1 LIG        0.129026
     43 H18          13.028     -4.922     -3.815 CJ            1 LIG        0.129026
     44 H19          13.139     -3.352     -2.992 CK            1 LIG        0.129026
     45 H20           8.253     -3.648     -2.385 CM            1 LIG        0.110256
     46 H21           9.276     -3.681     -0.947 CN            1 LIG        0.110256
     47 H22           9.823     -2.835     -2.409 CT            1 LIG        0.110256
     48 H23          14.332     -2.906     -0.516 CW            1 LIG        0.037623
     49 H24          12.816     -2.348     -1.107 DA            1 LIG        0.037623
     50 H25          12.137     -2.670      1.559 DB            1 LIG        0.084613
     51 H26          13.812     -2.482      1.762 DC            1 LIG        0.084613
     52 H27          14.336     -4.982     -1.739 DD            1 LIG        0.326325
@<TRIPOS>BOND
        1  1  2  2
        2  1  3  1
        3  1  26  1
        4  2  4  1
        5  2  27  1
        6  3  8  2
        7  3  28  1
        8  4  10  2
        9  4  29  1
        10  5  6  1
        11  5  11  2
        12  5  30  1
        13  6  12  2
        14  6  31  1
        15  7  9  2
        16  7  12  1
        17  7  32  1
        18  8  10  1
        19  8  22  1
        20  9  11  1
        21  9  22  1
        22  10  24  1
        23  11  24  1
        24  12  25  1
        25  13  14  1
        26  13  15  1
        27  13  33  1
        28  13  34  1
        29  14  16  1
        30  14  35  1
        31  14  36  1
        32  15  17  1
        33  15  37  1
        34  15  38  1
        35  16  23  1
        36  16  39  1
        37  16  40  1
        38  17  20  1
        39  17  23  1
        40  17  41  1
        41  18  23  1
        42  18  42  1
        43  18  43  1
        44  18  44  1
        45  19  25  1
        46  19  45  1
        47  19  46  1
        48  19  47  1
        49  20  21  1
        50  20  48  1
        51  20  49  1
        52  21  22  1
        53  21  50  1
        54  21  51  1
        55  23  52  1
@<TRIPOS>SUBSTRUCTURE
       1 LIG             1 RESIDUE    0 **** ROOT      0
