@<TRIPOS>MOLECULE
LIG
52 55
SMALL
USER_CHARGES
@<TRIPOS>ATOM
      1 C1         22.2651  117.3399   46.5640 AA             0 LIG     -0.151259
      2 C2         21.9802  117.7154   45.2384 AB             0 LIG     -0.151259
      3 C3         22.9326  116.1290   46.8298 AD             0 LIG     -0.219304
      4 C4         22.3793  116.8836   44.1768 AE             0 LIG     -0.194592
      5 C5         22.7772  111.9706   43.0371 AF             0 LIG     -0.194592
      6 C6         22.5241  110.7173   43.6179 AH             0 LIG     -0.194592
      7 C7         23.2603  111.5795   45.7781 AI             0 LIG     -0.277127
      8 C8         23.2962  115.2542   45.7756 AJ             0 LIG     0.085655
      9 C9         23.4799  112.8588   45.2203 AK             0 LIG     0.085655
     10 C10        23.0254  115.6610   44.4421 AN             0 LIG     0.112307
     11 C11        23.2410  113.0371   43.8334 AO             0 LIG     0.112307
     12 C12        22.7699  110.5209   44.9858 AP             0 LIG     0.162844
     13 C13        25.8132  117.3494   43.6480 AQ             0 LIG     -0.032521
     14 C14        27.0816  117.1675   42.8100 AV             0 LIG     -0.034488
     15 C15        25.4471  116.0245   44.3310 AW             0 LIG     -0.055761
     16 C16        28.2213  116.6487   43.6931 AX             0 LIG     -0.006430
     17 C17        26.6120  115.4264   45.1645 AY             1 LIG     0.133288
     18 C18        29.0524  114.8318   45.0911 AZ             0 LIG     -0.176010
     19 C19        21.0357  108.2099   44.7321 BB             0 LIG     -0.159669
     20 C20        26.1972  114.0340   45.7188 BC             0 LIG     -0.036260
     21 C21        25.0843  114.0516   46.7935 BD             0 LIG     0.036576
     22 N1         23.8060  113.9658   46.0399 BF             0 LIG     -0.187743
     23 N2         27.8747  115.3555   44.3475 BG             2 LIG     -0.192054
     24 S1         23.4479  114.6163   43.0850 BH             0 LIG     -0.197945
     25 S2         22.3732  108.9538   45.6988 BJ             0 LIG     -0.259338
     26 H1         21.9282  117.9651   47.3790 BK             0 LIG     0.162335
     27 H2         21.4311  118.6248   45.0371 BL             0 LIG     0.162335
     28 H3         23.0970  115.8589   47.8570 BM             0 LIG     0.137375
     29 H4         22.1391  117.1565   43.1610 BN             0 LIG     0.176356
     30 H5         22.5597  112.1314   41.9913 BO             0 LIG     0.176356
     31 H6         22.1037  109.9175   43.0232 BP             0 LIG     0.176356
     32 H7         23.3814  111.4269   46.8330 BQ             0 LIG     0.141006
     33 H8         25.9672  118.1321   44.3961 BS             0 LIG     0.046484
     34 H9         24.9891  117.6874   43.0145 BT             0 LIG     0.046484
     35 H10        26.8886  116.4819   41.9819 BU             0 LIG     0.051372
     36 H11        27.3693  118.1201   42.3567 BV             0 LIG     0.051372
     37 H12        24.5766  116.1881   44.9694 BW             0 LIG     0.048966
     38 H13        25.1278  115.3145   43.5676 BX             0 LIG     0.048966
     39 H14        29.1102  116.5232   43.0742 BY             0 LIG     0.095743
     40 H15        28.4669  117.3942   44.4507 BZ             0 LIG     0.095743
     41 H16        26.7980  116.0974   46.0074 CB             0 LIG     0.086415
     42 H17        29.2172  115.3924   46.0107 CI             0 LIG     0.129026
     43 H18        29.9568  114.9066   44.4892 CJ             0 LIG     0.129026
     44 H19        28.9566  113.7762   45.3409 CK             0 LIG     0.129026
     45 H20        20.7058  107.2867   45.2097 CM             0 LIG     0.110256
     46 H21        21.3712  107.9695   43.7238 CN             0 LIG     0.110256
     47 H22        20.1893  108.8939   44.6778 CT             0 LIG     0.110256
     48 H23        25.8904  113.4011   44.8846 CW             0 LIG     0.037623
     49 H24        27.0499  113.5448   46.1699 DA             0 LIG     0.037623
     50 H25        25.2667  113.2761   47.5395 DB             0 LIG     0.084613
     51 H26        25.0981  114.9964   47.3427 DC             0 LIG     0.084613
     52 H27        27.6880  114.7073   43.5948 DD             0 LIG     0.326325
@<TRIPOS>BOND
        1  1  2  2
        2  1  3  1
        3  1  26  1
        4  2  4  1
        5  2  27  1
        6  3  8  2
        7  3  28  1
        8  4  10  2
        9  4  29  1
        10  5  6  1
        11  5  11  2
        12  5  30  1
        13  6  12  2
        14  6  31  1
        15  7  9  2
        16  7  12  1
        17  7  32  1
        18  8  10  1
        19  8  22  1
        20  9  11  1
        21  9  22  1
        22  10  24  1
        23  11  24  1
        24  12  25  1
        25  13  14  1
        26  13  15  1
        27  13  33  1
        28  13  34  1
        29  14  16  1
        30  14  35  1
        31  14  36  1
        32  15  17  1
        33  15  37  1
        34  15  38  1
        35  16  23  1
        36  16  39  1
        37  16  40  1
        38  17  20  1
        39  17  23  1
        40  17  41  1
        41  18  23  1
        42  18  42  1
        43  18  43  1
        44  18  44  1
        45  19  25  1
        46  19  45  1
        47  19  46  1
        48  19  47  1
        49  20  21  1
        50  20  48  1
        51  20  49  1
        52  21  22  1
        53  21  50  1
        54  21  51  1
        55  23  52  1
@<TRIPOS>SUBSTRUCTURE
       1 LIG             1 RESIDUE    0 **** ROOT      0

