@<TRIPOS>MOLECULE
LIG
52 55
SMALL
USER_CHARGES
@<TRIPOS>ATOM
      1 C1         22.2949  117.3379   46.5762 AA             0 LIG     -0.151741
      2 C2         22.0569  117.7425   45.2477 AB             0 LIG     -0.151741
      3 C3         22.9129  116.0985   46.8376 AD             0 LIG     -0.220252
      4 C4         22.4415  116.9091   44.1840 AE             0 LIG     -0.194616
      5 C5         22.8009  111.9711   43.0325 AF             0 LIG     -0.194616
      6 C6         22.5549  110.7150   43.6126 AH             0 LIG     -0.194616
      7 C7         23.2493  111.5853   45.7890 AI             0 LIG     -0.276550
      8 C8         23.2744  115.2375   45.7795 AJ             0 LIG     0.084603
      9 C9         23.4638  112.8614   45.2231 AK             0 LIG     0.084603
     10 C10        23.0327  115.6600   44.4462 AN             0 LIG     0.112404
     11 C11        23.2333  113.0406   43.8359 AO             0 LIG     0.112404
     12 C12        22.7711  110.5230   44.9896 AP             0 LIG     0.163041
     13 C13        25.6260  115.7259   43.0693 AQ             0 LIG     -0.029878
     14 C14        27.0723  115.9276   42.5873 AV             0 LIG     -0.034345
     15 C15        25.4324  116.2643   44.4957 AW             0 LIG     -0.054555
     16 C16        28.0967  115.4032   43.6092 AX             0 LIG     0.011138
     17 C17        26.4838  115.7054   45.4832 AY             1 LIG     0.149935
     18 C18        28.9560  115.7822   45.9124 AZ             0 LIG     -0.244054
     19 C19        21.7992  107.8485   44.3748 BB             0 LIG     -0.160589
     20 C20        26.2828  114.1973   45.8093 BC             0 LIG     -0.033239
     21 C21        25.0901  113.9097   46.7441 BD             0 LIG     0.039575
     22 N1         23.8037  113.9606   46.0341 BF             0 LIG     -0.187004
     23 N2         27.8481  116.0083   44.9469 BG             1 LIG     -0.070769
     24 S1         23.4490  114.6195   43.0870 BH             0 LIG     -0.197900
     25 S2         22.3971  108.9452   45.6876 BJ             0 LIG     -0.258446
     26 H1         21.9997  117.9766   47.3940 BK             0 LIG     0.161610
     27 H2         21.5694  118.6844   45.0428 BL             0 LIG     0.161610
     28 H3         23.0614  115.8090   47.8629 BM             0 LIG     0.136076
     29 H4         22.2727  117.2140   43.1617 BN             0 LIG     0.176324
     30 H5         22.6342  112.1271   41.9780 BO             0 LIG     0.176324
     31 H6         22.1877  109.9040   42.9995 BP             0 LIG     0.176324
     32 H7         23.3948  111.4398   46.8427 BQ             0 LIG     0.140791
     33 H8         24.9391  116.2264   42.3845 BS             0 LIG     0.046381
     34 H9         25.3645  114.6703   43.0238 BT             0 LIG     0.046381
     35 H10        27.2133  115.4267   41.6269 BU             0 LIG     0.049941
     36 H11        27.2525  116.9874   42.3951 BV             0 LIG     0.049941
     37 H12        25.5038  117.3541   44.4726 BW             0 LIG     0.046927
     38 H13        24.4200  116.0479   44.8399 BX             0 LIG     0.046927
     39 H14        28.0556  114.3140   43.6715 BY             0 LIG     0.081886
     40 H15        29.1026  115.6566   43.2709 BZ             0 LIG     0.081886
     41 H16        26.3849  116.2661   46.4223 CB             0 LIG     0.038290
     42 H17        29.1503  114.7188   46.0769 CI             0 LIG     0.142123
     43 H18        28.7395  116.2463   46.8765 CJ             0 LIG     0.142123
     44 H19        29.8809  116.2288   45.5356 CK             0 LIG     0.142123
     45 H20        21.5230  106.8843   44.8026 CM             0 LIG     0.110774
     46 H21        22.5725  107.6761   43.6269 CN             0 LIG     0.110774
     47 H22        20.9193  108.2750   43.8931 CT             0 LIG     0.110774
     48 H23        26.1601  113.6254   44.8926 CW             0 LIG     0.042019
     49 H24        27.1751  113.7916   46.2831 DA             0 LIG     0.042019
     50 H25        25.1913  112.9253   47.2055 DB             0 LIG     0.082888
     51 H26        25.0881  114.6157   47.5747 DC             0 LIG     0.082888
     52 H27        27.8431  117.0067   44.7910 DD             0 LIG     0.271082
@<TRIPOS>BOND
        1  1  2  2
        2  1  3  1
        3  1  26  1
        4  2  4  1
        5  2  27  1
        6  3  8  2
        7  3  28  1
        8  4  10  2
        9  4  29  1
        10  5  6  1
        11  5  11  2
        12  5  30  1
        13  6  12  2
        14  6  31  1
        15  7  9  2
        16  7  12  1
        17  7  32  1
        18  8  10  1
        19  8  22  1
        20  9  11  1
        21  9  22  1
        22  10  24  1
        23  11  24  1
        24  12  25  1
        25  13  14  1
        26  13  15  1
        27  13  33  1
        28  13  34  1
        29  14  16  1
        30  14  35  1
        31  14  36  1
        32  15  17  1
        33  15  37  1
        34  15  38  1
        35  16  23  1
        36  16  39  1
        37  16  40  1
        38  17  20  1
        39  17  23  1
        40  17  41  1
        41  18  23  1
        42  18  42  1
        43  18  43  1
        44  18  44  1
        45  19  25  1
        46  19  45  1
        47  19  46  1
        48  19  47  1
        49  20  21  1
        50  20  48  1
        51  20  49  1
        52  21  22  1
        53  21  50  1
        54  21  51  1
        55  23  52  1
@<TRIPOS>SUBSTRUCTURE
       1 LIG             1 RESIDUE    0 **** ROOT      0

