@<TRIPOS>MOLECULE
LIG
50 53
SMALL
USER_CHARGES
@<TRIPOS>ATOM
      1 C1         22.6737  117.5300   46.4658 AA             0 LIG     -0.148793
      2 C2         22.5945  117.9434   45.1416 AB             0 LIG     -0.148793
      3 C3         23.0442  116.2208   46.7671 AD             0 LIG     -0.214109
      4 C4         22.8664  117.0386   44.1217 AE             0 LIG     -0.192215
      5 C5         22.9321  111.9468   43.0351 AF             0 LIG     -0.192215
      6 C6         22.6930  110.6965   43.5934 AH             0 LIG     -0.190417
      7 C7         23.1061  111.6149   45.7801 AI             0 LIG     -0.264320
      8 C8         23.3472  115.2834   45.7582 AJ             0 LIG     0.095370
      9 C9         23.3769  112.8921   45.2449 AK             0 LIG     0.095370
     10 C10        23.2253  115.7219   44.4201 AN             0 LIG     0.116137
     11 C11        23.2586  113.0350   43.8458 AO             0 LIG     0.116137
     12 C12        22.7685  110.5219   44.9760 AP             0 LIG     -0.071581
     13 C13        28.0907  116.3112   43.7382 AQ             0 LIG     0.037365
     14 C14        28.9908  114.2382   44.6613 AV             0 LIG     0.037365
     15 C15        29.4920  116.9405   43.7784 AW             0 LIG     0.086222
     16 C16        30.3995  114.8683   44.6888 AX             0 LIG     0.086222
     17 C17        26.2131  113.8811   45.7619 AY             0 LIG     0.011333
     18 C18        25.0983  113.9397   46.8058 AZ             0 LIG     0.026484
     19 C19        26.5507  114.7792   44.6058 BB             0 LIG     0.037611
     20 N1         23.8101  113.9767   46.0485 BC             0 LIG     -0.178062
     21 N2         27.9464  115.2897   44.7687 BD             0 LIG     -0.528710
     22 N3         30.5259  115.8901   43.6434 BF             0 LIG     -0.527743
     23 F1         23.5391  108.8230   46.3968 BG             0 LIG     -0.255693
     24 F2         22.3293  108.1934   44.7219 BH             0 LIG     -0.255693
     25 F3         21.4131  109.2357   46.3802 BJ             0 LIG     -0.255693
     26 S1         23.4452  114.6046   43.0862 BK             0 LIG     -0.174420
     27 C20        22.5075  109.1622   45.6223 BL             0 LIG     0.695255
     28 H1         22.4528  118.2254   47.2620 BM             0 LIG     0.167075
     29 H2         22.3099  118.9581   44.9055 BN             0 LIG     0.167075
     30 H3         23.0898  115.9665   47.8119 BO             0 LIG     0.157041
     31 H4         22.7777  117.3593   43.0936 BP             0 LIG     0.180382
     32 H5         22.8457  112.0721   41.9655 BQ             0 LIG     0.180382
     33 H6         22.4378  109.8725   42.9433 BS             0 LIG     0.183084
     34 H7         23.1631  111.4326   46.8411 BT             0 LIG     0.171935
     35 H8         27.3415  117.0954   43.9188 BU             0 LIG     0.086347
     36 H9         27.8908  115.8541   42.7682 BV             0 LIG     0.086347
     37 H10        28.8207  113.6700   43.7444 BW             0 LIG     0.086347
     38 H11        28.9105  113.5435   45.5042 BX             0 LIG     0.086347
     39 H12        29.5860  117.6396   42.9493 BY             0 LIG     0.119217
     40 H13        29.6623  117.5036   44.6992 BZ             0 LIG     0.119217
     41 H14        30.6289  115.3002   45.6683 CB             0 LIG     0.119217
     42 H15        31.1426  114.0803   44.5191 CI             0 LIG     0.119217
     43 H16        26.8212  114.4918   46.3753 CJ             0 LIG     0.035265
     44 H17        26.6027  112.8878   45.6613 CK             0 LIG     0.035265
     45 H18        25.1473  113.1786   47.6146 CM             0 LIG     0.085093
     46 H19        25.1785  114.9214   47.2683 CN             0 LIG     0.085093
     47 H20        26.3764  114.2781   43.6465 CT             0 LIG     0.068063
     48 H21        25.8417  115.6069   44.6768 CW             0 LIG     0.068063
     49 H22        30.4179  115.4457   42.7484 DA             0 LIG     0.375757
     50 H23        31.4478  116.3093   43.6815 DB             0 LIG     0.375757
@<TRIPOS>BOND
        1  1  2  2
        2  1  3  1
        3  1  28  1
        4  2  4  1
        5  2  29  1
        6  3  8  2
        7  3  30  1
        8  4  10  2
        9  4  31  1
        10  5  6  1
        11  5  11  2
        12  5  32  1
        13  6  12  2
        14  6  33  1
        15  7  9  2
        16  7  12  1
        17  7  34  1
        18  8  10  1
        19  8  20  1
        20  9  11  1
        21  9  20  1
        22  10  26  1
        23  11  26  1
        24  12  27  1
        25  13  15  1
        26  13  21  1
        27  13  35  1
        28  13  36  1
        29  14  16  1
        30  14  21  1
        31  14  37  1
        32  14  38  1
        33  15  22  1
        34  15  39  1
        35  15  40  1
        36  16  22  1
        37  16  41  1
        38  16  42  1
        39  17  18  1
        40  17  19  1
        41  17  43  1
        42  17  44  1
        43  18  20  1
        44  18  45  1
        45  18  46  1
        46  19  21  1
        47  19  47  1
        48  19  48  1
        49  22  49  1
        50  22  50  1
        51  23  27  1
        52  24  27  1
        53  25  27  1
@<TRIPOS>SUBSTRUCTURE
       1 LIG             1 RESIDUE    0 **** ROOT      0

