@<TRIPOS>MOLECULE
LIG
50 53
SMALL
USER_CHARGES
@<TRIPOS>ATOM
      1 C1         22.3857  117.4271   46.4759 AA             0 LIG     -0.146946
      2 C2         22.2954  117.8451   45.1528 AB             0 LIG     -0.146946
      3 C3         22.8543  116.1475   46.7721 AD             0 LIG     -0.213882
      4 C4         22.6557  116.9725   44.1285 AE             0 LIG     -0.189563
      5 C5         22.9474  111.9684   43.0117 AF             0 LIG     -0.189563
      6 C6         22.7011  110.6947   43.5926 AH             0 LIG     -0.186283
      7 C7         23.1041  111.6136   45.7826 AI             0 LIG     -0.267664
      8 C8         23.2522  115.2469   45.7606 AJ             0 LIG     0.094519
      9 C9         23.3844  112.8906   45.2441 AK             0 LIG     0.094519
     10 C10        23.1138  115.6849   44.4236 AN             0 LIG     0.116195
     11 C11        23.2677  113.0362   43.8510 AO             0 LIG     0.116195
     12 C12        22.7627  110.5170   44.9968 AP             0 LIG     -0.069395
     13 C13        28.9668  115.3413   45.1796 AQ             0 LIG     -0.041121
     14 C14        28.2933  115.3088   42.8444 AV             0 LIG     -0.041121
     15 C15        30.3855  114.9229   44.7282 AW             0 LIG     0.063286
     16 C16        29.7084  114.8717   42.4334 AX             0 LIG     0.063286
     17 C17        26.2721  114.0622   45.8335 AY             0 LIG     -0.016690
     18 C18        25.0952  113.9793   46.8199 AZ             0 LIG     0.028631
     19 C19        26.5361  115.0262   44.6856 BB             0 LIG     -0.059139
     20 N1         23.8064  113.9752   46.0477 BC             0 LIG     -0.187888
     21 N2         27.9577  114.8264   44.2256 BD             0 LIG     -0.035261
     22 N3         30.6705  115.4104   43.3816 BF             0 LIG     -0.795699
     23 F1         21.4758  109.2820   46.4820 BG             0 LIG     -0.251326
     24 F2         23.5680  108.7578   46.2864 BH             0 LIG     -0.251326
     25 F3         22.1688  108.2284   44.7268 BJ             0 LIG     -0.251326
     26 S1         23.4464  114.6039   43.0841 BK             0 LIG     -0.162784
     27 C20        22.4877  109.1685   45.6199 BL             0 LIG     0.697269
     28 H1         22.0988  118.0954   47.2726 BM             0 LIG     0.171877
     29 H2         21.9354  118.8347   44.9192 BN             0 LIG     0.171877
     30 H3         22.9073  115.8907   47.8146 BO             0 LIG     0.150837
     31 H4         22.5571  117.2941   43.1036 BP             0 LIG     0.186066
     32 H5         22.8606  112.0714   41.9648 BQ             0 LIG     0.186066
     33 H6         22.4465  109.8723   42.9416 BS             0 LIG     0.189607
     34 H7         23.1424  111.4363   46.8426 BT             0 LIG     0.149674
     35 H8         28.7713  114.9390   46.1741 BU             0 LIG     0.093433
     36 H9         28.8873  116.4276   45.2478 BV             0 LIG     0.093433
     37 H10        28.1682  116.3891   42.7665 BW             0 LIG     0.093433
     38 H11        27.6685  114.8861   42.0708 BX             0 LIG     0.093433
     39 H12        31.1356  115.3267   45.4095 BY             0 LIG     0.105981
     40 H13        30.4992  113.8367   44.7485 BZ             0 LIG     0.105981
     41 H14        29.7892  113.7825   42.3861 CB             0 LIG     0.105981
     42 H15        29.9386  115.2343   41.4281 CI             0 LIG     0.105981
     43 H16        27.1816  114.0702   46.4413 CJ             0 LIG     0.044237
     44 H17        26.1043  113.1492   45.2768 CK             0 LIG     0.044237
     45 H18        25.2701  113.1149   47.5106 CM             0 LIG     0.093748
     46 H19        25.0693  114.8523   47.4581 CN             0 LIG     0.093748
     47 H20        25.8354  114.8419   43.8702 CT             0 LIG     0.094892
     48 H21        26.3929  116.0519   45.0242 CW             0 LIG     0.094892
     49 H22        30.7545  116.4210   43.3210 DA             0 LIG     0.419755
     50 H23        28.1121  113.8275   44.1967 DB             0 LIG     0.340852
@<TRIPOS>BOND
        1  1  2  2
        2  1  3  1
        3  1  28  1
        4  2  4  1
        5  2  29  1
        6  3  8  2
        7  3  30  1
        8  4  10  2
        9  4  31  1
        10  5  6  1
        11  5  11  2
        12  5  32  1
        13  6  12  2
        14  6  33  1
        15  7  9  2
        16  7  12  1
        17  7  34  1
        18  8  10  1
        19  8  20  1
        20  9  11  1
        21  9  20  1
        22  10  26  1
        23  11  26  1
        24  12  27  1
        25  13  15  1
        26  13  21  1
        27  13  35  1
        28  13  36  1
        29  14  16  1
        30  14  21  1
        31  14  37  1
        32  14  38  1
        33  15  22  1
        34  15  39  1
        35  15  40  1
        36  16  22  1
        37  16  41  1
        38  16  42  1
        39  17  18  1
        40  17  19  1
        41  17  43  1
        42  17  44  1
        43  18  20  1
        44  18  45  1
        45  18  46  1
        46  19  21  1
        47  19  47  1
        48  19  48  1
        49  21  50  1
        50  22  49  1
        51  23  27  1
        52  24  27  1
        53  25  27  1
@<TRIPOS>SUBSTRUCTURE
       1 LIG             1 RESIDUE    0 **** ROOT      0

