PMT1assS
                    3D
 Schrodinger Suite 2019-4.
 41 43  0  0  1  0            999 V2000
   29.2764  112.4073   44.9843 C   0  0  0  0  0  0
   29.7444  105.2586   45.3678 C   0  0  0  0  0  0
   28.1033  112.4726   45.7958 C   0  0  0  0  0  0
   28.5824  105.0988   46.1415 C   0  0  0  0  0  0
   29.6278  111.1665   44.3997 C   0  0  0  0  0  0
   29.9826  106.4711   44.6906 C   0  0  0  0  0  0
   27.3052  111.3032   46.0003 C   0  0  0  0  0  0
   27.6661  106.1579   46.2480 C   0  0  0  0  0  0
   28.8597  110.0038   44.5969 C   0  0  0  0  0  0
   29.0540  107.5405   44.7666 C   0  0  0  0  0  0
   27.6986  110.0944   45.4188 C   0  0  0  0  0  0
   27.8956  107.3707   45.5697 C   0  0  0  0  0  0
   29.6682  106.2146   41.7492 C   0  0  0  0  0  0
   27.0962  107.9806   39.9811 C   0  0  0  0  0  0
   29.3075  107.2552   39.2179 C   0  0  0  0  0  0
   29.2934  108.8096   42.5503 C   0  0  0  0  0  0
   28.8944  107.5586   41.6668 C   0  0  1  0  0  0
   29.2517  108.7544   44.0636 N   0  0  0  0  0  0
   28.5609  107.9781   40.2737 N   0  3  0  0  0  0
   26.7111  108.6681   45.7498 S   0  0  0  0  0  0
   29.8664  113.2779   44.8545 H   0  0  0  0  0  0
   30.4670  104.4552   45.3180 H   0  0  0  0  0  0
   27.8238  113.4079   46.2626 H   0  0  0  0  0  0
   28.4033  104.1728   46.6732 H   0  0  0  0  0  0
   30.5516  111.1572   43.8427 H   0  0  0  0  0  0
   30.9060  106.5559   44.1420 H   0  0  0  0  0  0
   26.4483  111.3744   46.6318 H   0  0  0  0  0  0
   26.7900  106.0524   46.8712 H   0  0  0  0  0  0
   29.8568  105.9141   42.7838 H   0  0  0  0  0  0
   30.5812  106.2125   41.2064 H   0  0  0  0  0  0
   29.1632  105.3703   41.2562 H   0  0  0  0  0  0
   26.7053  106.9681   39.9146 H   0  0  0  0  0  0
   26.9105  108.4653   39.0252 H   0  0  0  0  0  0
   26.5408  108.5189   40.7454 H   0  0  0  0  0  0
   29.0746  106.1905   39.2310 H   0  0  0  0  0  0
   30.3894  107.3765   39.3190 H   0  0  0  0  0  0
   29.0553  107.6242   38.2277 H   0  0  0  0  0  0
   30.3458  108.9454   42.6074 H   0  0  0  0  0  0
   29.0212  109.7201   41.8745 H   0  0  0  0  0  0
   27.9205  107.2760   42.1030 H   0  0  0  0  0  0
   28.8489  108.9392   40.2093 H   0  0  0  0  0  0
  1  3  2  0  0  0
  1  5  1  0  0  0
  1 21  1  0  0  0
  2  4  2  0  0  0
  2  6  1  0  0  0
  2 22  1  0  0  0
  3  7  1  0  0  0
  3 23  1  0  0  0
  4  8  1  0  0  0
  4 24  1  0  0  0
  5  9  2  0  0  0
  5 25  1  0  0  0
  6 10  2  0  0  0
  6 26  1  0  0  0
  7 11  2  0  0  0
  7 27  1  0  0  0
  8 12  2  0  0  0
  8 28  1  0  0  0
  9 11  1  0  0  0
  9 18  1  0  0  0
 10 12  1  0  0  0
 10 18  1  0  0  0
 11 20  1  0  0  0
 12 20  1  0  0  0
 13 17  1  0  0  0
 13 29  1  0  0  0
 13 30  1  0  0  0
 13 31  1  0  0  0
 14 19  1  0  0  0
 14 32  1  0  0  0
 14 33  1  0  0  0
 14 34  1  0  0  0
 15 19  1  0  0  0
 15 35  1  0  0  0
 15 36  1  0  0  0
 15 37  1  0  0  0
 16 17  1  0  0  0
 16 18  1  0  0  0
 16 38  1  0  0  0
 16 39  1  0  0  0
 17 19  1  0  0  0
 17 40  1  0  0  0
 19 41  1  0  0  0
M  CHG  1  19   1
M  END
> <s_m_entry_id>
449

> <s_m_Source_Path>
/home/emilio/Dropbox/SAMPL9-eglab/mCD/ligsdfs

> <s_m_Source_File>
PMT1assS.sdf

> <i_m_Source_File_Index>
1

> <r_epik_Ionization_Penalty>
  0.0045

> <r_epik_State_Penalty>
  0.0032

> <i_epik_Tot_Q>
1

> <s_m_job_name>
ligprep_4

> <i_f3d_flags>
0

$$$$
