PMZ1assS
                    3D
 Schrodinger Suite 2019-4.
 41 43  0  0  1  0            999 V2000
   29.3119  112.3867   44.8771 C   0  0  0  0  0  0
   29.7882  105.2401   45.3476 C   0  0  0  0  0  0
   28.1056  112.6015   45.4835 C   0  0  0  0  0  0
   28.6216  105.1433   46.1223 C   0  0  0  0  0  0
   29.8081  111.0725   44.4577 C   0  0  0  0  0  0
   30.1281  106.5543   44.8370 C   0  0  0  0  0  0
   27.3141  111.4742   45.8145 C   0  0  0  0  0  0
   27.6925  106.2281   46.2936 C   0  0  0  0  0  0
   28.9907  109.9425   44.7873 C   0  0  0  0  0  0
   29.1751  107.6161   44.9288 C   0  0  0  0  0  0
   27.7544  110.1107   45.5010 C   0  0  0  0  0  0
   28.0030  107.4300   45.7120 C   0  0  0  0  0  0
   26.5259  105.3199   40.6290 C   0  0  0  0  0  0
   27.7209  106.1700   38.6634 C   0  0  0  0  0  0
   28.3993  107.3125   42.1680 C   0  0  0  0  0  0
   29.1461  108.6181   42.5997 C   0  0  0  0  0  0
   28.1738  107.3164   40.7080 C   0  0  0  0  0  0
   29.2019  108.7132   44.1173 N   0  0  0  0  0  0
   27.8585  105.9566   40.0912 N   0  3  0  0  0  0
   26.7183  108.7254   45.7186 S   0  0  0  0  0  0
   29.9788  113.2331   44.5677 H   0  0  0  0  0  0
   30.4462  104.4437   45.2712 H   0  0  0  0  0  0
   27.7933  113.5925   45.8692 H   0  0  0  0  0  0
   28.2581  104.1290   46.4396 H   0  0  0  0  0  0
   30.7803  110.9211   44.0591 H   0  0  0  0  0  0
   31.1468  106.7081   44.3850 H   0  0  0  0  0  0
   26.3493  111.7559   46.2980 H   0  0  0  0  0  0
   26.6956  106.1225   46.6701 H   0  0  0  0  0  0
   26.4462  104.4737   39.9098 H   0  0  0  0  0  0
   25.7795  106.1358   40.4493 H   0  0  0  0  0  0
   26.5556  104.9950   41.6276 H   0  0  0  0  0  0
   28.6881  106.6705   38.3296 H   0  0  0  0  0  0
   26.9385  106.9158   38.5691 H   0  0  0  0  0  0
   27.3631  105.2502   38.2253 H   0  0  0  0  0  0
   28.9687  106.4213   42.4691 H   0  0  0  0  0  0
   27.4369  107.3509   42.6906 H   0  0  0  0  0  0
   30.2040  108.7003   42.2112 H   0  0  0  0  0  0
   28.5141  109.4862   42.2443 H   0  0  0  0  0  0
   27.3929  107.9468   40.3880 H   0  0  0  0  0  0
   29.1442  107.6076   40.2667 H   0  0  0  0  0  0
   28.7096  105.3182   40.3846 H   0  0  0  0  0  0
  1  3  2  0  0  0
  1  5  1  0  0  0
  1 21  1  0  0  0
  2  4  2  0  0  0
  2  6  1  0  0  0
  2 22  1  0  0  0
  3  7  1  0  0  0
  3 23  1  0  0  0
  4  8  1  0  0  0
  4 24  1  0  0  0
  5  9  2  0  0  0
  5 25  1  0  0  0
  6 10  2  0  0  0
  6 26  1  0  0  0
  7 11  2  0  0  0
  7 27  1  0  0  0
  8 12  2  0  0  0
  8 28  1  0  0  0
  9 11  1  0  0  0
  9 18  1  0  0  0
 10 12  1  0  0  0
 10 18  1  0  0  0
 11 20  1  0  0  0
 12 20  1  0  0  0
 13 19  1  0  0  0
 13 29  1  0  0  0
 13 30  1  0  0  0
 13 31  1  0  0  0
 14 19  1  0  0  0
 14 32  1  0  0  0
 14 33  1  0  0  0
 14 34  1  0  0  0
 15 16  1  0  0  0
 15 17  1  0  0  0
 15 35  1  0  0  0
 15 36  1  0  0  0
 16 18  1  0  0  0
 16 37  1  0  0  0
 16 38  1  0  0  0
 17 19  1  0  0  0
 17 39  1  0  0  0
 17 40  1  0  0  0
 19 41  1  0  0  0
M  CHG  1  19   1
M  END
> <s_m_entry_id>
444

> <s_m_Source_Path>
/home/emilio/Dropbox/sims/SAMPL9/work/FFEngine/postc/mCDssSf/ligands

> <s_m_Source_File>
PMZ1assS-q.sdf

> <i_m_Source_File_Index>
1

> <r_epik_Ionization_Penalty>
  0.0034

> <r_epik_State_Penalty>
  0.0024

> <i_epik_Tot_Q>
1

> <s_m_job_name>
ligprep_4

> <i_f3d_flags>
0

$$$$
