TDZNS1assS
                    3D
 Schrodinger Suite 2019-4.
 52 55  0  0  1  0            999 V2000
   29.2030  112.4254   44.8247 C   0  0  0  0  0  0
   28.0799  112.4714   45.7418 C   0  0  0  0  0  0
   29.5436  111.1867   44.2663 C   0  0  0  0  0  0
   27.3359  111.2995   46.0127 C   0  0  0  0  0  0
   27.6038  106.1217   46.1553 C   0  0  0  0  0  0
   28.5206  105.0615   46.0401 C   0  0  0  0  0  0
   30.0231  106.5318   44.8144 C   0  0  0  0  0  0
   28.8362  110.0010   44.5524 C   0  0  0  0  0  0
   29.0559  107.5561   44.7969 C   0  0  0  0  0  0
   27.7010  110.0851   45.4133 C   0  0  0  0  0  0
   27.8674  107.3599   45.5398 C   0  0  0  0  0  0
   29.7391  105.2718   45.3647 C   0  0  0  0  0  0
   31.9952  104.8124   42.2769 C   0  0  0  0  0  0
   31.2124  103.5014   42.0792 C   0  0  0  0  0  0
   31.2498  106.0099   41.6506 C   0  0  0  0  0  0
   29.7420  103.6499   42.5306 C   0  0  0  0  0  0
   29.7978  106.0906   42.1947 C   0  0  1  0  0  0
   28.7882  104.5712   40.4449 C   0  0  0  0  0  0
   30.2198  102.4322   45.7351 C   0  0  0  0  0  0
   28.9889  107.3597   41.7894 C   0  0  0  0  0  0
   29.2767  108.6354   42.6150 C   0  0  0  0  0  0
   29.2615  108.7434   44.0644 N   0  0  0  0  0  0
   29.0754  104.8182   41.8837 N   0  3  2  0  0  0
   26.7063  108.6642   45.7546 S   0  0  0  0  0  0
   30.9250  103.9877   45.1239 S   0  0  0  0  0  0
   29.7372  113.3060   44.6251 H   0  0  0  0  0  0
   27.8152  113.4088   46.2113 H   0  0  0  0  0  0
   30.4118  111.1931   43.6247 H   0  0  0  0  0  0
   26.5021  111.3495   46.6916 H   0  0  0  0  0  0
   26.6878  105.9998   46.7163 H   0  0  0  0  0  0
   28.2910  104.1150   46.5027 H   0  0  0  0  0  0
   31.0080  106.7190   44.4186 H   0  0  0  0  0  0
   32.1405  104.9926   43.3435 H   0  0  0  0  0  0
   32.9971  104.7254   41.8478 H   0  0  0  0  0  0
   31.2738  103.1943   41.0320 H   0  0  0  0  0  0
   31.7017  102.7021   42.6404 H   0  0  0  0  0  0
   31.7972  106.9219   41.8787 H   0  0  0  0  0  0
   31.2581  105.9259   40.5646 H   0  0  0  0  0  0
   29.1956  102.7244   42.3256 H   0  0  0  0  0  0
   29.7192  103.7779   43.6158 H   0  0  0  0  0  0
   29.8773  106.1115   43.2766 H   0  0  0  0  0  0
   29.6824  104.3154   39.8773 H   0  0  0  0  0  0
   28.3359  105.4306   39.9560 H   0  0  0  0  0  0
   28.0861  103.7446   40.3286 H   0  0  0  0  0  0
   30.9100  101.6152   45.5212 H   0  0  0  0  0  0
   29.2700  102.2152   45.2441 H   0  0  0  0  0  0
   30.0585  102.4650   46.8142 H   0  0  0  0  0  0
   29.3389  107.6305   40.7883 H   0  0  0  0  0  0
   27.9218  107.1790   41.6771 H   0  0  0  0  0  0
   30.2660  108.6721   42.8997 H   0  0  0  0  0  0
   28.9958  109.5145   42.0575 H   0  0  0  0  0  0
   28.1752  104.8907   42.3350 H   0  0  0  0  0  0
  1  2  2  0  0  0
  1  3  1  0  0  0
  1 26  1  0  0  0
  2  4  1  0  0  0
  2 27  1  0  0  0
  3  8  2  0  0  0
  3 28  1  0  0  0
  4 10  2  0  0  0
  4 29  1  0  0  0
  5  6  2  0  0  0
  5 11  1  0  0  0
  5 30  1  0  0  0
  6 12  1  0  0  0
  6 31  1  0  0  0
  7  9  1  0  0  0
  7 12  2  0  0  0
  7 32  1  0  0  0
  8 10  1  0  0  0
  8 22  1  0  0  0
  9 11  2  0  0  0
  9 22  1  0  0  0
 10 24  1  0  0  0
 11 24  1  0  0  0
 12 25  1  0  0  0
 13 14  1  0  0  0
 13 15  1  0  0  0
 13 33  1  0  0  0
 13 34  1  0  0  0
 14 16  1  0  0  0
 14 35  1  0  0  0
 14 36  1  0  0  0
 15 17  1  0  0  0
 15 37  1  0  0  0
 15 38  1  0  0  0
 16 23  1  0  0  0
 16 39  1  0  0  0
 16 40  1  0  0  0
 17 20  1  0  0  0
 17 23  1  0  0  0
 17 41  1  0  0  0
 18 23  1  0  0  0
 18 42  1  0  0  0
 18 43  1  0  0  0
 18 44  1  0  0  0
 19 25  1  0  0  0
 19 45  1  0  0  0
 19 46  1  0  0  0
 19 47  1  0  0  0
 20 21  1  0  0  0
 20 48  1  0  0  0
 20 49  1  0  0  0
 21 22  1  0  0  0
 21 50  1  0  0  0
 21 51  1  0  0  0
 23 52  1  0  0  0
M  CHG  1  23   1
M  END
> <s_m_entry_id>
455

> <s_m_Source_Path>
/home/emilio/Dropbox/SAMPL9-eglab/mCD/ligsdfs

> <s_m_Source_File>
TDZNR1assR.sdf

> <i_m_Source_File_Index>
1

> <r_epik_Ionization_Penalty>
  0.0017

> <r_epik_State_Penalty>
  0.0011

> <i_epik_Tot_Q>
1

> <s_m_job_name>
ligprep_4

> <i_f3d_flags>
0

$$$$
