TDZNR1assS
                    3D
 Schrodinger Suite 2019-4.
 52 55  0  0  1  0            999 V2000
   29.1695  112.4145   44.8506 C   0  0  0  0  0  0
   28.0801  112.4713   45.7416 C   0  0  0  0  0  0
   29.5442  111.1914   44.2660 C   0  0  0  0  0  0
   27.3410  111.3058   46.0117 C   0  0  0  0  0  0
   27.6037  106.1218   46.1553 C   0  0  0  0  0  0
   28.5207  105.0615   46.0403 C   0  0  0  0  0  0
   30.0232  106.5319   44.8144 C   0  0  0  0  0  0
   28.8339  109.9997   44.5540 C   0  0  0  0  0  0
   29.0559  107.5560   44.7967 C   0  0  0  0  0  0
   27.7024  110.0830   45.4116 C   0  0  0  0  0  0
   27.8674  107.3598   45.5398 C   0  0  0  0  0  0
   29.7391  105.2719   45.3647 C   0  0  0  0  0  0
   24.7399  107.9248   41.1248 C   0  0  0  0  0  0
   24.7496  107.6496   39.6153 C   0  0  0  0  0  0
   26.0290  107.4002   41.7764 C   0  0  0  0  0  0
   26.0355  108.1836   38.9599 C   0  0  0  0  0  0
   27.2777  107.9970   41.0838 C   0  0  1  0  0  0
   28.4830  107.9998   38.8823 C   0  0  0  0  0  0
   30.2198  102.4322   45.7351 C   0  0  0  0  0  0
   28.6112  107.6291   41.7997 C   0  0  0  0  0  0
   29.2759  108.7657   42.6109 C   0  0  0  0  0  0
   29.2610  108.7436   44.0646 N   0  0  0  0  0  0
   27.2501  107.6389   39.6308 N   0  3  2  0  0  0
   26.7063  108.6642   45.7547 S   0  0  0  0  0  0
   30.9250  103.9876   45.1239 S   0  0  0  0  0  0
   29.7372  113.3060   44.6252 H   0  0  0  0  0  0
   27.8152  113.4088   46.2113 H   0  0  0  0  0  0
   30.4117  111.1930   43.6246 H   0  0  0  0  0  0
   26.5021  111.3495   46.6916 H   0  0  0  0  0  0
   26.6878  105.9998   46.7163 H   0  0  0  0  0  0
   28.2910  104.1150   46.5027 H   0  0  0  0  0  0
   31.0081  106.7189   44.4184 H   0  0  0  0  0  0
   24.6450  108.9997   41.3037 H   0  0  0  0  0  0
   23.8647  107.4637   41.5855 H   0  0  0  0  0  0
   24.6470  106.5777   39.4331 H   0  0  0  0  0  0
   23.8793  108.1179   39.1517 H   0  0  0  0  0  0
   26.0081  107.6599   42.8362 H   0  0  0  0  0  0
   26.0519  106.3082   41.7343 H   0  0  0  0  0  0
   26.0325  107.9067   37.9041 H   0  0  0  0  0  0
   26.0522  109.2768   38.9993 H   0  0  0  0  0  0
   27.1725  109.0766   41.1235 H   0  0  0  0  0  0
   28.7657  109.0384   39.0594 H   0  0  0  0  0  0
   28.3512  107.8653   37.8091 H   0  0  0  0  0  0
   29.3185  107.3600   39.1676 H   0  0  0  0  0  0
   30.9100  101.6152   45.5213 H   0  0  0  0  0  0
   29.2700  102.2152   45.2441 H   0  0  0  0  0  0
   30.0585  102.4650   46.8142 H   0  0  0  0  0  0
   28.4036  106.8215   42.5021 H   0  0  0  0  0  0
   29.3609  107.2246   41.1272 H   0  0  0  0  0  0
   30.2554  108.5296   42.8890 H   0  0  0  0  0  0
   29.3109  109.7238   42.0456 H   0  0  0  0  0  0
   27.1748  106.6316   39.5838 H   0  0  0  0  0  0
  1  2  2  0  0  0
  1  3  1  0  0  0
  1 26  1  0  0  0
  2  4  1  0  0  0
  2 27  1  0  0  0
  3  8  2  0  0  0
  3 28  1  0  0  0
  4 10  2  0  0  0
  4 29  1  0  0  0
  5  6  2  0  0  0
  5 11  1  0  0  0
  5 30  1  0  0  0
  6 12  1  0  0  0
  6 31  1  0  0  0
  7  9  1  0  0  0
  7 12  2  0  0  0
  7 32  1  0  0  0
  8 10  1  0  0  0
  8 22  1  0  0  0
  9 11  2  0  0  0
  9 22  1  0  0  0
 10 24  1  0  0  0
 11 24  1  0  0  0
 12 25  1  0  0  0
 13 14  1  0  0  0
 13 15  1  0  0  0
 13 33  1  0  0  0
 13 34  1  0  0  0
 14 16  1  0  0  0
 14 35  1  0  0  0
 14 36  1  0  0  0
 15 17  1  0  0  0
 15 37  1  0  0  0
 15 38  1  0  0  0
 16 23  1  0  0  0
 16 39  1  0  0  0
 16 40  1  0  0  0
 17 20  1  0  0  0
 17 23  1  0  0  0
 17 41  1  0  0  0
 18 23  1  0  0  0
 18 42  1  0  0  0
 18 43  1  0  0  0
 18 44  1  0  0  0
 19 25  1  0  0  0
 19 45  1  0  0  0
 19 46  1  0  0  0
 19 47  1  0  0  0
 20 21  1  0  0  0
 20 48  1  0  0  0
 20 49  1  0  0  0
 21 22  1  0  0  0
 21 50  1  0  0  0
 21 51  1  0  0  0
 23 52  1  0  0  0
M  CHG  1  23   1
M  END
> <s_m_entry_id>
453

> <s_m_Source_Path>
/home/emilio/Dropbox/SAMPL9-eglab/mCD/ligsdfs

> <s_m_Source_File>
TDZNR1assR.sdf

> <i_m_Source_File_Index>
1

> <r_epik_Ionization_Penalty>
  0.0017

> <r_epik_State_Penalty>
  0.0011

> <i_epik_Tot_Q>
1

> <s_m_job_name>
ligprep_4

> <i_f3d_flags>
0

$$$$
