TFP1bssS
                    3D
 Schrodinger Suite 2019-4.
 50 53  0  0  1  0            999 V2000
   29.0977  112.4239   44.7088 C   0  0  0  0  0  0
   27.9502  112.5095   45.5177 C   0  0  0  0  0  0
   29.5265  111.1739   44.2217 C   0  0  0  0  0  0
   27.2289  111.3440   45.8316 C   0  0  0  0  0  0
   27.6372  106.1458   46.2253 C   0  0  0  0  0  0
   28.5565  105.0860   46.1071 C   0  0  0  0  0  0
   29.9937  106.5113   44.7590 C   0  0  0  0  0  0
   28.8164  109.9915   44.5352 C   0  0  0  0  0  0
   29.0442  107.5546   44.7853 C   0  0  0  0  0  0
   27.6525  110.0918   45.3455 C   0  0  0  0  0  0
   27.8753  107.3715   45.5680 C   0  0  0  0  0  0
   29.7407  105.2674   45.3657 C   0  0  0  0  0  0
   28.1971  105.8901   38.5306 C   0  0  0  0  0  0
   26.9060  105.1904   40.4803 C   0  0  0  0  0  0
   28.2568  104.4192   38.0693 C   0  0  0  0  0  0
   26.9883  103.7311   39.9908 C   0  0  0  0  0  0
   28.4621  107.3910   42.0442 C   0  0  0  0  0  0
   29.1393  108.6712   42.5840 C   0  0  0  0  0  0
   28.1658  107.3609   40.5328 C   0  0  0  0  0  0
   29.2728  108.7458   44.0563 N   0  0  0  0  0  0
   28.0918  105.9644   40.0116 N   0  3  0  0  0  0
   27.0788  103.6934   38.5348 N   0  0  0  0  0  0
   31.9632  104.5461   45.4191 F   0  0  0  0  0  0
   30.6786  103.8059   43.8432 F   0  0  0  0  0  0
   30.4464  103.0591   45.8660 F   0  0  0  0  0  0
   26.6949  108.6655   45.7615 S   0  0  0  0  0  0
   30.7283  104.1363   45.1366 C   0  0  0  0  0  0
   29.6575  113.3188   44.4780 H   0  0  0  0  0  0
   27.6277  113.4673   45.9038 H   0  0  0  0  0  0
   30.4221  111.1233   43.6218 H   0  0  0  0  0  0
   26.3555  111.4110   46.4652 H   0  0  0  0  0  0
   26.7419  106.0176   46.8184 H   0  0  0  0  0  0
   28.3560  104.1402   46.5909 H   0  0  0  0  0  0
   30.9275  106.6390   44.2395 H   0  0  0  0  0  0
   29.1003  106.4020   38.1950 H   0  0  0  0  0  0
   27.3509  106.4003   38.0680 H   0  0  0  0  0  0
   25.9839  105.6588   40.1319 H   0  0  0  0  0  0
   26.8502  105.1638   41.5686 H   0  0  0  0  0  0
   28.3006  104.3693   36.9793 H   0  0  0  0  0  0
   29.1583  103.9237   38.4378 H   0  0  0  0  0  0
   27.8483  103.2175   40.4288 H   0  0  0  0  0  0
   26.1037  103.1757   40.3155 H   0  0  0  0  0  0
   29.0925  106.5353   42.2845 H   0  0  0  0  0  0
   27.5177  107.2805   42.5677 H   0  0  0  0  0  0
   30.1295  108.7359   42.1296 H   0  0  0  0  0  0
   28.5911  109.5555   42.2455 H   0  0  0  0  0  0
   27.2443  107.8973   40.3077 H   0  0  0  0  0  0
   28.9603  107.9006   40.0112 H   0  0  0  0  0  0
   26.2166  103.9669   38.0691 H   0  0  0  0  0  0
   28.8994  105.4670   40.3579 H   0  0  0  0  0  0
  1  2  2  0  0  0
  1  3  1  0  0  0
  1 28  1  0  0  0
  2  4  1  0  0  0
  2 29  1  0  0  0
  3  8  2  0  0  0
  3 30  1  0  0  0
  4 10  2  0  0  0
  4 31  1  0  0  0
  5  6  2  0  0  0
  5 11  1  0  0  0
  5 32  1  0  0  0
  6 12  1  0  0  0
  6 33  1  0  0  0
  7  9  1  0  0  0
  7 12  2  0  0  0
  7 34  1  0  0  0
  8 10  1  0  0  0
  8 20  1  0  0  0
  9 11  2  0  0  0
  9 20  1  0  0  0
 10 26  1  0  0  0
 11 26  1  0  0  0
 12 27  1  0  0  0
 13 15  1  0  0  0
 13 21  1  0  0  0
 13 35  1  0  0  0
 13 36  1  0  0  0
 14 16  1  0  0  0
 14 21  1  0  0  0
 14 37  1  0  0  0
 14 38  1  0  0  0
 15 22  1  0  0  0
 15 39  1  0  0  0
 15 40  1  0  0  0
 16 22  1  0  0  0
 16 41  1  0  0  0
 16 42  1  0  0  0
 17 18  1  0  0  0
 17 19  1  0  0  0
 17 43  1  0  0  0
 17 44  1  0  0  0
 18 20  1  0  0  0
 18 45  1  0  0  0
 18 46  1  0  0  0
 19 21  1  0  0  0
 19 47  1  0  0  0
 19 48  1  0  0  0
 21 50  1  0  0  0
 22 49  1  0  0  0
 23 27  1  0  0  0
 24 27  1  0  0  0
 25 27  1  0  0  0
M  CHG  1  21   1
M  END
> <s_m_entry_id>
458

> <s_m_Source_Path>
/home/emilio/Dropbox/SAMPL9-eglab/mCD/ligsdfs

> <s_m_Source_File>
TFP1bssS.sdf

> <i_m_Source_File_Index>
1

> <r_epik_Ionization_Penalty>
  0.1004

> <r_epik_State_Penalty>
  1.6660

> <i_epik_Tot_Q>
1

> <s_m_job_name>
ligprep_4

> <i_f3d_flags>
0

$$$$
