TFP1assS
                    3D
 Schrodinger Suite 2019-4.
 50 53  0  0  1  0            999 V2000
   29.0810  112.4466   44.7849 C   0  0  0  0  0  0
   27.9230  112.5104   45.5770 C   0  0  0  0  0  0
   29.5186  111.2096   44.2709 C   0  0  0  0  0  0
   27.2039  111.3346   45.8530 C   0  0  0  0  0  0
   27.6829  106.1798   46.2883 C   0  0  0  0  0  0
   28.6035  105.1208   46.1926 C   0  0  0  0  0  0
   29.9461  106.4582   44.6573 C   0  0  0  0  0  0
   28.8048  110.0111   44.5307 C   0  0  0  0  0  0
   29.0385  107.5424   44.7494 C   0  0  0  0  0  0
   27.6440  110.0956   45.3422 C   0  0  0  0  0  0
   27.9011  107.3808   45.5805 C   0  0  0  0  0  0
   29.7397  105.2583   45.3705 C   0  0  0  0  0  0
   28.7913  106.3205   38.2489 C   0  0  0  0  0  0
   27.1460  105.8898   39.9223 C   0  0  0  0  0  0
   28.7015  104.8668   37.7391 C   0  0  0  0  0  0
   26.8965  104.4729   39.3479 C   0  0  0  0  0  0
   29.2020  107.4136   41.8075 C   0  0  0  0  0  0
   29.2566  108.7609   42.5808 C   0  0  0  0  0  0
   28.8603  107.5607   40.3055 C   0  0  0  0  0  0
   29.2625  108.7587   44.0563 N   0  0  0  0  0  0
   28.5452  106.2719   39.6900 N   0  0  0  0  0  0
   27.3150  104.3816   37.9263 N   0  3  0  0  0  0
   30.9582  103.8669   43.9511 F   0  0  0  0  0  0
   30.3746  103.0268   45.8580 F   0  0  0  0  0  0
   31.9203  104.5431   45.7680 F   0  0  0  0  0  0
   26.7051  108.6620   45.7565 S   0  0  0  0  0  0
   30.7659  104.1412   45.2412 C   0  0  0  0  0  0
   29.6500  113.3451   44.5868 H   0  0  0  0  0  0
   27.5959  113.4576   45.9857 H   0  0  0  0  0  0
   30.4347  111.2026   43.7074 H   0  0  0  0  0  0
   26.3266  111.3798   46.4795 H   0  0  0  0  0  0
   26.8121  106.0790   46.9209 H   0  0  0  0  0  0
   28.4427  104.2097   46.7531 H   0  0  0  0  0  0
   30.8431  106.5179   44.0629 H   0  0  0  0  0  0
   29.7646  106.7558   38.0275 H   0  0  0  0  0  0
   28.0563  106.9560   37.7586 H   0  0  0  0  0  0
   26.4960  106.6318   39.4511 H   0  0  0  0  0  0
   26.9267  105.9019   40.9945 H   0  0  0  0  0  0
   28.9803  104.8136   36.6852 H   0  0  0  0  0  0
   29.4002  104.2174   38.2737 H   0  0  0  0  0  0
   27.4361  103.7311   39.9397 H   0  0  0  0  0  0
   25.8338  104.2394   39.4202 H   0  0  0  0  0  0
   30.1096  106.8250   41.9739 H   0  0  0  0  0  0
   28.4027  106.8207   42.2619 H   0  0  0  0  0  0
   30.2377  109.1065   42.7263 H   0  0  0  0  0  0
   28.7799  109.5443   41.9362 H   0  0  0  0  0  0
   28.0645  108.2848   40.1519 H   0  0  0  0  0  0
   29.7108  108.0013   39.8023 H   0  0  0  0  0  0
   26.7177  104.9813   37.3743 H   0  0  0  0  0  0
   27.2406  103.4289   37.6057 H   0  0  0  0  0  0
  1  2  2  0  0  0
  1  3  1  0  0  0
  1 28  1  0  0  0
  2  4  1  0  0  0
  2 29  1  0  0  0
  3  8  2  0  0  0
  3 30  1  0  0  0
  4 10  2  0  0  0
  4 31  1  0  0  0
  5  6  2  0  0  0
  5 11  1  0  0  0
  5 32  1  0  0  0
  6 12  1  0  0  0
  6 33  1  0  0  0
  7  9  1  0  0  0
  7 12  2  0  0  0
  7 34  1  0  0  0
  8 10  1  0  0  0
  8 20  1  0  0  0
  9 11  2  0  0  0
  9 20  1  0  0  0
 10 26  1  0  0  0
 11 26  1  0  0  0
 12 27  1  0  0  0
 13 15  1  0  0  0
 13 21  1  0  0  0
 13 35  1  0  0  0
 13 36  1  0  0  0
 14 16  1  0  0  0
 14 21  1  0  0  0
 14 37  1  0  0  0
 14 38  1  0  0  0
 15 22  1  0  0  0
 15 39  1  0  0  0
 15 40  1  0  0  0
 16 22  1  0  0  0
 16 41  1  0  0  0
 16 42  1  0  0  0
 17 18  1  0  0  0
 17 19  1  0  0  0
 17 43  1  0  0  0
 17 44  1  0  0  0
 18 20  1  0  0  0
 18 45  1  0  0  0
 18 46  1  0  0  0
 19 21  1  0  0  0
 19 47  1  0  0  0
 19 48  1  0  0  0
 22 49  1  0  0  0
 22 50  1  0  0  0
 23 27  1  0  0  0
 24 27  1  0  0  0
 25 27  1  0  0  0
M  CHG  1  22   1
M  END
> <s_m_entry_id>
457

> <s_m_Source_Path>
/home/emilio/Dropbox/SAMPL9-eglab/mCD/ligsdfs

> <s_m_Source_File>
TFP1assS.sdf

> <i_m_Source_File_Index>
1

> <r_epik_Ionization_Penalty>
  0.0078

> <r_epik_State_Penalty>
  0.0420

> <i_epik_Tot_Q>
1

> <s_m_job_name>
ligprep_4

> <i_f3d_flags>
0

$$$$
